
---------- Begin Simulation Statistics ----------
sim_seconds                                  0.004966                       # Number of seconds simulated
sim_ticks                                  4966456000                       # Number of ticks simulated
final_tick                                 4966456000                       # Number of ticks from beginning of simulation (restored from checkpoints and never reset)
sim_freq                                 1000000000000                       # Frequency of simulated ticks
host_inst_rate                                  50898                       # Simulator instruction rate (inst/s)
host_op_rate                                   101688                       # Simulator op (including micro ops) rate (op/s)
host_tick_rate                               19648525                       # Simulator tick rate (ticks/s)
host_mem_usage                                 850180                       # Number of bytes of host memory used
host_seconds                                   252.77                       # Real time elapsed on the host
sim_insts                                    12865230                       # Number of instructions simulated
sim_ops                                      25703036                       # Number of ops (including micro ops) simulated
system.voltage_domain.voltage                       1                       # Voltage in Volts
system.clk_domain.clock                          1000                       # Clock period in ticks
system.mem_ctrls.pwrStateResidencyTicks::UNDEFINED   4966456000                       # Cumulative time (in ticks) in various power states
system.mem_ctrls.bytes_read::ruby.dir_cntrl0      1190528                       # Number of bytes read from this memory
system.mem_ctrls.bytes_read::total            1190528                       # Number of bytes read from this memory
system.mem_ctrls.bytes_written::ruby.dir_cntrl0          192                       # Number of bytes written to this memory
system.mem_ctrls.bytes_written::total             192                       # Number of bytes written to this memory
system.mem_ctrls.num_reads::ruby.dir_cntrl0        18602                       # Number of read requests responded to by this memory
system.mem_ctrls.num_reads::total               18602                       # Number of read requests responded to by this memory
system.mem_ctrls.num_writes::ruby.dir_cntrl0            3                       # Number of write requests responded to by this memory
system.mem_ctrls.num_writes::total                  3                       # Number of write requests responded to by this memory
system.mem_ctrls.bw_read::ruby.dir_cntrl0    239713792                       # Total read bandwidth from this memory (bytes/s)
system.mem_ctrls.bw_read::total             239713792                       # Total read bandwidth from this memory (bytes/s)
system.mem_ctrls.bw_write::ruby.dir_cntrl0        38659                       # Write bandwidth from this memory (bytes/s)
system.mem_ctrls.bw_write::total                38659                       # Write bandwidth from this memory (bytes/s)
system.mem_ctrls.bw_total::ruby.dir_cntrl0    239752451                       # Total bandwidth to/from this memory (bytes/s)
system.mem_ctrls.bw_total::total            239752451                       # Total bandwidth to/from this memory (bytes/s)
system.mem_ctrls.readReqs                       18602                       # Number of read requests accepted
system.mem_ctrls.avgNetLat                       0.00                       # Average network latency to DRAM controller
system.mem_ctrls.writeReqs                          3                       # Number of write requests accepted
system.mem_ctrls.readBursts                     18602                       # Number of DRAM read bursts, including those serviced by the write queue
system.mem_ctrls.writeBursts                        3                       # Number of DRAM write bursts, including those merged in the write queue
system.mem_ctrls.bytesReadDRAM                1190528                       # Total number of bytes read from DRAM
system.mem_ctrls.bytesReadWrQ                       0                       # Total number of bytes read from write queue
system.mem_ctrls.bytesWritten                       0                       # Total number of bytes written to DRAM
system.mem_ctrls.bytesReadSys                 1190528                       # Total read bytes from the system interface side
system.mem_ctrls.bytesWrittenSys                  192                       # Total written bytes from the system interface side
system.mem_ctrls.servicedByWrQ                      0                       # Number of DRAM read bursts serviced by the write queue
system.mem_ctrls.mergedWrBursts                     0                       # Number of DRAM write bursts merged with an existing one
system.mem_ctrls.neitherReadNorWriteReqs            0                       # Number of requests that are neither read nor write
system.mem_ctrls.perBankRdBursts::0              1184                       # Per bank write bursts
system.mem_ctrls.perBankRdBursts::1              1166                       # Per bank write bursts
system.mem_ctrls.perBankRdBursts::2              1075                       # Per bank write bursts
system.mem_ctrls.perBankRdBursts::3               908                       # Per bank write bursts
system.mem_ctrls.perBankRdBursts::4               871                       # Per bank write bursts
system.mem_ctrls.perBankRdBursts::5              1147                       # Per bank write bursts
system.mem_ctrls.perBankRdBursts::6              1315                       # Per bank write bursts
system.mem_ctrls.perBankRdBursts::7              1398                       # Per bank write bursts
system.mem_ctrls.perBankRdBursts::8              1393                       # Per bank write bursts
system.mem_ctrls.perBankRdBursts::9              1337                       # Per bank write bursts
system.mem_ctrls.perBankRdBursts::10             1266                       # Per bank write bursts
system.mem_ctrls.perBankRdBursts::11             1296                       # Per bank write bursts
system.mem_ctrls.perBankRdBursts::12              998                       # Per bank write bursts
system.mem_ctrls.perBankRdBursts::13             1021                       # Per bank write bursts
system.mem_ctrls.perBankRdBursts::14             1097                       # Per bank write bursts
system.mem_ctrls.perBankRdBursts::15             1130                       # Per bank write bursts
system.mem_ctrls.perBankWrBursts::0                 0                       # Per bank write bursts
system.mem_ctrls.perBankWrBursts::1                 0                       # Per bank write bursts
system.mem_ctrls.perBankWrBursts::2                 0                       # Per bank write bursts
system.mem_ctrls.perBankWrBursts::3                 0                       # Per bank write bursts
system.mem_ctrls.perBankWrBursts::4                 0                       # Per bank write bursts
system.mem_ctrls.perBankWrBursts::5                 0                       # Per bank write bursts
system.mem_ctrls.perBankWrBursts::6                 0                       # Per bank write bursts
system.mem_ctrls.perBankWrBursts::7                 0                       # Per bank write bursts
system.mem_ctrls.perBankWrBursts::8                 0                       # Per bank write bursts
system.mem_ctrls.perBankWrBursts::9                 0                       # Per bank write bursts
system.mem_ctrls.perBankWrBursts::10                0                       # Per bank write bursts
system.mem_ctrls.perBankWrBursts::11                0                       # Per bank write bursts
system.mem_ctrls.perBankWrBursts::12                0                       # Per bank write bursts
system.mem_ctrls.perBankWrBursts::13                0                       # Per bank write bursts
system.mem_ctrls.perBankWrBursts::14                0                       # Per bank write bursts
system.mem_ctrls.perBankWrBursts::15                0                       # Per bank write bursts
system.mem_ctrls.numRdRetry                         0                       # Number of times read queue was full causing retry
system.mem_ctrls.numWrRetry                         0                       # Number of times write queue was full causing retry
system.mem_ctrls.totGap                    4966390500                       # Total gap between requests
system.mem_ctrls.readPktSize::0                     0                       # Read request sizes (log2)
system.mem_ctrls.readPktSize::1                     0                       # Read request sizes (log2)
system.mem_ctrls.readPktSize::2                     0                       # Read request sizes (log2)
system.mem_ctrls.readPktSize::3                     0                       # Read request sizes (log2)
system.mem_ctrls.readPktSize::4                     0                       # Read request sizes (log2)
system.mem_ctrls.readPktSize::5                     0                       # Read request sizes (log2)
system.mem_ctrls.readPktSize::6                 18602                       # Read request sizes (log2)
system.mem_ctrls.writePktSize::0                    0                       # Write request sizes (log2)
system.mem_ctrls.writePktSize::1                    0                       # Write request sizes (log2)
system.mem_ctrls.writePktSize::2                    0                       # Write request sizes (log2)
system.mem_ctrls.writePktSize::3                    0                       # Write request sizes (log2)
system.mem_ctrls.writePktSize::4                    0                       # Write request sizes (log2)
system.mem_ctrls.writePktSize::5                    0                       # Write request sizes (log2)
system.mem_ctrls.writePktSize::6                    3                       # Write request sizes (log2)
system.mem_ctrls.rdQLenPdf::0                    6226                       # What read queue length does an incoming req see
system.mem_ctrls.rdQLenPdf::1                    2759                       # What read queue length does an incoming req see
system.mem_ctrls.rdQLenPdf::2                    2531                       # What read queue length does an incoming req see
system.mem_ctrls.rdQLenPdf::3                    1819                       # What read queue length does an incoming req see
system.mem_ctrls.rdQLenPdf::4                    1305                       # What read queue length does an incoming req see
system.mem_ctrls.rdQLenPdf::5                    1026                       # What read queue length does an incoming req see
system.mem_ctrls.rdQLenPdf::6                     877                       # What read queue length does an incoming req see
system.mem_ctrls.rdQLenPdf::7                     741                       # What read queue length does an incoming req see
system.mem_ctrls.rdQLenPdf::8                     524                       # What read queue length does an incoming req see
system.mem_ctrls.rdQLenPdf::9                     338                       # What read queue length does an incoming req see
system.mem_ctrls.rdQLenPdf::10                    227                       # What read queue length does an incoming req see
system.mem_ctrls.rdQLenPdf::11                    128                       # What read queue length does an incoming req see
system.mem_ctrls.rdQLenPdf::12                     60                       # What read queue length does an incoming req see
system.mem_ctrls.rdQLenPdf::13                     25                       # What read queue length does an incoming req see
system.mem_ctrls.rdQLenPdf::14                     12                       # What read queue length does an incoming req see
system.mem_ctrls.rdQLenPdf::15                      4                       # What read queue length does an incoming req see
system.mem_ctrls.rdQLenPdf::16                      0                       # What read queue length does an incoming req see
system.mem_ctrls.rdQLenPdf::17                      0                       # What read queue length does an incoming req see
system.mem_ctrls.rdQLenPdf::18                      0                       # What read queue length does an incoming req see
system.mem_ctrls.rdQLenPdf::19                      0                       # What read queue length does an incoming req see
system.mem_ctrls.rdQLenPdf::20                      0                       # What read queue length does an incoming req see
system.mem_ctrls.rdQLenPdf::21                      0                       # What read queue length does an incoming req see
system.mem_ctrls.rdQLenPdf::22                      0                       # What read queue length does an incoming req see
system.mem_ctrls.rdQLenPdf::23                      0                       # What read queue length does an incoming req see
system.mem_ctrls.rdQLenPdf::24                      0                       # What read queue length does an incoming req see
system.mem_ctrls.rdQLenPdf::25                      0                       # What read queue length does an incoming req see
system.mem_ctrls.rdQLenPdf::26                      0                       # What read queue length does an incoming req see
system.mem_ctrls.rdQLenPdf::27                      0                       # What read queue length does an incoming req see
system.mem_ctrls.rdQLenPdf::28                      0                       # What read queue length does an incoming req see
system.mem_ctrls.rdQLenPdf::29                      0                       # What read queue length does an incoming req see
system.mem_ctrls.rdQLenPdf::30                      0                       # What read queue length does an incoming req see
system.mem_ctrls.rdQLenPdf::31                      0                       # What read queue length does an incoming req see
system.mem_ctrls.wrQLenPdf::0                       1                       # What write queue length does an incoming req see
system.mem_ctrls.wrQLenPdf::1                       1                       # What write queue length does an incoming req see
system.mem_ctrls.wrQLenPdf::2                       1                       # What write queue length does an incoming req see
system.mem_ctrls.wrQLenPdf::3                       0                       # What write queue length does an incoming req see
system.mem_ctrls.wrQLenPdf::4                       0                       # What write queue length does an incoming req see
system.mem_ctrls.wrQLenPdf::5                       0                       # What write queue length does an incoming req see
system.mem_ctrls.wrQLenPdf::6                       0                       # What write queue length does an incoming req see
system.mem_ctrls.wrQLenPdf::7                       0                       # What write queue length does an incoming req see
system.mem_ctrls.wrQLenPdf::8                       0                       # What write queue length does an incoming req see
system.mem_ctrls.wrQLenPdf::9                       0                       # What write queue length does an incoming req see
system.mem_ctrls.wrQLenPdf::10                      0                       # What write queue length does an incoming req see
system.mem_ctrls.wrQLenPdf::11                      0                       # What write queue length does an incoming req see
system.mem_ctrls.wrQLenPdf::12                      0                       # What write queue length does an incoming req see
system.mem_ctrls.wrQLenPdf::13                      0                       # What write queue length does an incoming req see
system.mem_ctrls.wrQLenPdf::14                      0                       # What write queue length does an incoming req see
system.mem_ctrls.wrQLenPdf::15                      0                       # What write queue length does an incoming req see
system.mem_ctrls.wrQLenPdf::16                      0                       # What write queue length does an incoming req see
system.mem_ctrls.wrQLenPdf::17                      0                       # What write queue length does an incoming req see
system.mem_ctrls.wrQLenPdf::18                      0                       # What write queue length does an incoming req see
system.mem_ctrls.wrQLenPdf::19                      0                       # What write queue length does an incoming req see
system.mem_ctrls.wrQLenPdf::20                      0                       # What write queue length does an incoming req see
system.mem_ctrls.wrQLenPdf::21                      0                       # What write queue length does an incoming req see
system.mem_ctrls.wrQLenPdf::22                      0                       # What write queue length does an incoming req see
system.mem_ctrls.wrQLenPdf::23                      0                       # What write queue length does an incoming req see
system.mem_ctrls.wrQLenPdf::24                      0                       # What write queue length does an incoming req see
system.mem_ctrls.wrQLenPdf::25                      0                       # What write queue length does an incoming req see
system.mem_ctrls.wrQLenPdf::26                      0                       # What write queue length does an incoming req see
system.mem_ctrls.wrQLenPdf::27                      0                       # What write queue length does an incoming req see
system.mem_ctrls.wrQLenPdf::28                      0                       # What write queue length does an incoming req see
system.mem_ctrls.wrQLenPdf::29                      0                       # What write queue length does an incoming req see
system.mem_ctrls.wrQLenPdf::30                      0                       # What write queue length does an incoming req see
system.mem_ctrls.wrQLenPdf::31                      0                       # What write queue length does an incoming req see
system.mem_ctrls.wrQLenPdf::32                      0                       # What write queue length does an incoming req see
system.mem_ctrls.wrQLenPdf::33                      0                       # What write queue length does an incoming req see
system.mem_ctrls.wrQLenPdf::34                      0                       # What write queue length does an incoming req see
system.mem_ctrls.wrQLenPdf::35                      0                       # What write queue length does an incoming req see
system.mem_ctrls.wrQLenPdf::36                      0                       # What write queue length does an incoming req see
system.mem_ctrls.wrQLenPdf::37                      0                       # What write queue length does an incoming req see
system.mem_ctrls.wrQLenPdf::38                      0                       # What write queue length does an incoming req see
system.mem_ctrls.wrQLenPdf::39                      0                       # What write queue length does an incoming req see
system.mem_ctrls.wrQLenPdf::40                      0                       # What write queue length does an incoming req see
system.mem_ctrls.wrQLenPdf::41                      0                       # What write queue length does an incoming req see
system.mem_ctrls.wrQLenPdf::42                      0                       # What write queue length does an incoming req see
system.mem_ctrls.wrQLenPdf::43                      0                       # What write queue length does an incoming req see
system.mem_ctrls.wrQLenPdf::44                      0                       # What write queue length does an incoming req see
system.mem_ctrls.wrQLenPdf::45                      0                       # What write queue length does an incoming req see
system.mem_ctrls.wrQLenPdf::46                      0                       # What write queue length does an incoming req see
system.mem_ctrls.wrQLenPdf::47                      0                       # What write queue length does an incoming req see
system.mem_ctrls.wrQLenPdf::48                      0                       # What write queue length does an incoming req see
system.mem_ctrls.wrQLenPdf::49                      0                       # What write queue length does an incoming req see
system.mem_ctrls.wrQLenPdf::50                      0                       # What write queue length does an incoming req see
system.mem_ctrls.wrQLenPdf::51                      0                       # What write queue length does an incoming req see
system.mem_ctrls.wrQLenPdf::52                      0                       # What write queue length does an incoming req see
system.mem_ctrls.wrQLenPdf::53                      0                       # What write queue length does an incoming req see
system.mem_ctrls.wrQLenPdf::54                      0                       # What write queue length does an incoming req see
system.mem_ctrls.wrQLenPdf::55                      0                       # What write queue length does an incoming req see
system.mem_ctrls.wrQLenPdf::56                      0                       # What write queue length does an incoming req see
system.mem_ctrls.wrQLenPdf::57                      0                       # What write queue length does an incoming req see
system.mem_ctrls.wrQLenPdf::58                      0                       # What write queue length does an incoming req see
system.mem_ctrls.wrQLenPdf::59                      0                       # What write queue length does an incoming req see
system.mem_ctrls.wrQLenPdf::60                      0                       # What write queue length does an incoming req see
system.mem_ctrls.wrQLenPdf::61                      0                       # What write queue length does an incoming req see
system.mem_ctrls.wrQLenPdf::62                      0                       # What write queue length does an incoming req see
system.mem_ctrls.wrQLenPdf::63                      0                       # What write queue length does an incoming req see
system.mem_ctrls.bytesPerActivate::samples         4768                       # Bytes accessed per row activation
system.mem_ctrls.bytesPerActivate::mean    249.355705                       # Bytes accessed per row activation
system.mem_ctrls.bytesPerActivate::gmean   140.159351                       # Bytes accessed per row activation
system.mem_ctrls.bytesPerActivate::stdev   313.284669                       # Bytes accessed per row activation
system.mem_ctrls.bytesPerActivate::0-127         2431     50.99%     50.99% # Bytes accessed per row activation
system.mem_ctrls.bytesPerActivate::128-255         1086     22.78%     73.76% # Bytes accessed per row activation
system.mem_ctrls.bytesPerActivate::256-383          299      6.27%     80.03% # Bytes accessed per row activation
system.mem_ctrls.bytesPerActivate::384-511          155      3.25%     83.28% # Bytes accessed per row activation
system.mem_ctrls.bytesPerActivate::512-639          113      2.37%     85.65% # Bytes accessed per row activation
system.mem_ctrls.bytesPerActivate::640-767           61      1.28%     86.93% # Bytes accessed per row activation
system.mem_ctrls.bytesPerActivate::768-895           57      1.20%     88.13% # Bytes accessed per row activation
system.mem_ctrls.bytesPerActivate::896-1023           62      1.30%     89.43% # Bytes accessed per row activation
system.mem_ctrls.bytesPerActivate::1024-1151          504     10.57%    100.00% # Bytes accessed per row activation
system.mem_ctrls.bytesPerActivate::total         4768                       # Bytes accessed per row activation
system.mem_ctrls.totQLat                    475888983                       # Total ticks spent queuing
system.mem_ctrls.totMemAccLat               824676483                       # Total ticks spent from burst creation until serviced by the DRAM
system.mem_ctrls.totBusLat                   93010000                       # Total ticks spent in databus transfers
system.mem_ctrls.avgQLat                     25582.68                       # Average queueing delay per DRAM burst
system.mem_ctrls.avgBusLat                    5000.00                       # Average bus latency per DRAM burst
system.mem_ctrls.avgMemAccLat                44332.68                       # Average memory access latency per DRAM burst
system.mem_ctrls.avgRdBW                       239.71                       # Average DRAM read bandwidth in MiByte/s
system.mem_ctrls.avgWrBW                         0.00                       # Average achieved write bandwidth in MiByte/s
system.mem_ctrls.avgRdBWSys                    239.71                       # Average system read bandwidth in MiByte/s
system.mem_ctrls.avgWrBWSys                      0.04                       # Average system write bandwidth in MiByte/s
system.mem_ctrls.peakBW                      12800.00                       # Theoretical peak bandwidth in MiByte/s
system.mem_ctrls.busUtil                         1.87                       # Data bus utilization in percentage
system.mem_ctrls.busUtilRead                     1.87                       # Data bus utilization in percentage for reads
system.mem_ctrls.busUtilWrite                    0.00                       # Data bus utilization in percentage for writes
system.mem_ctrls.avgRdQLen                       1.15                       # Average read queue length when enqueuing
system.mem_ctrls.avgWrQLen                       2.06                       # Average write queue length when enqueuing
system.mem_ctrls.readRowHits                    13824                       # Number of row buffer hits during reads
system.mem_ctrls.writeRowHits                       0                       # Number of row buffer hits during writes
system.mem_ctrls.readRowHitRate                 74.31                       # Row buffer hit rate for reads
system.mem_ctrls.writeRowHitRate                 0.00                       # Row buffer hit rate for writes
system.mem_ctrls.avgGap                     266938.48                       # Average gap between requests
system.mem_ctrls.pageHitRate                    74.30                       # Row buffer hit rate, read and write combined
system.mem_ctrls_0.actEnergy                 16536240                       # Energy for activate commands per rank (pJ)
system.mem_ctrls_0.preEnergy                  8774040                       # Energy for precharge commands per rank (pJ)
system.mem_ctrls_0.readEnergy                64716960                       # Energy for read commands per rank (pJ)
system.mem_ctrls_0.writeEnergy                      0                       # Energy for write commands per rank (pJ)
system.mem_ctrls_0.refreshEnergy         47327280.000000                       # Energy for refresh commands per rank (pJ)
system.mem_ctrls_0.actBackEnergy            103876800                       # Energy for active background per rank (pJ)
system.mem_ctrls_0.preBackEnergy              2280000                       # Energy for precharge background per rank (pJ)
system.mem_ctrls_0.actPowerDownEnergy       118533780                       # Energy for active power-down per rank (pJ)
system.mem_ctrls_0.prePowerDownEnergy        22981920                       # Energy for precharge power-down per rank (pJ)
system.mem_ctrls_0.selfRefreshEnergy       1062968280                       # Energy for self refresh per rank (pJ)
system.mem_ctrls_0.totalEnergy             1447995300                       # Total energy per rank (pJ)
system.mem_ctrls_0.averagePower            291.555030                       # Core power per rank (mW)
system.mem_ctrls_0.totalIdleTime           4732571801                       # Total Idle time Per DRAM Rank
system.mem_ctrls_0.memoryStateTime::IDLE      2668000                       # Time in different power states
system.mem_ctrls_0.memoryStateTime::REF      20074000                       # Time in different power states
system.mem_ctrls_0.memoryStateTime::SREF   4412925000                       # Time in different power states
system.mem_ctrls_0.memoryStateTime::PRE_PDN     59835500                       # Time in different power states
system.mem_ctrls_0.memoryStateTime::ACT     211005949                       # Time in different power states
system.mem_ctrls_0.memoryStateTime::ACT_PDN    259947551                       # Time in different power states
system.mem_ctrls_1.actEnergy                 17578680                       # Energy for activate commands per rank (pJ)
system.mem_ctrls_1.preEnergy                  9320520                       # Energy for precharge commands per rank (pJ)
system.mem_ctrls_1.readEnergy                68101320                       # Energy for read commands per rank (pJ)
system.mem_ctrls_1.writeEnergy                      0                       # Energy for write commands per rank (pJ)
system.mem_ctrls_1.refreshEnergy         44868720.000000                       # Energy for refresh commands per rank (pJ)
system.mem_ctrls_1.actBackEnergy            104201130                       # Energy for active background per rank (pJ)
system.mem_ctrls_1.preBackEnergy              2120160                       # Energy for precharge background per rank (pJ)
system.mem_ctrls_1.actPowerDownEnergy       112453020                       # Energy for active power-down per rank (pJ)
system.mem_ctrls_1.prePowerDownEnergy        19099680                       # Energy for precharge power-down per rank (pJ)
system.mem_ctrls_1.selfRefreshEnergy       1067972040                       # Energy for self refresh per rank (pJ)
system.mem_ctrls_1.totalEnergy             1445715270                       # Total energy per rank (pJ)
system.mem_ctrls_1.averagePower            291.095944                       # Core power per rank (mW)
system.mem_ctrls_1.totalIdleTime           4732402028                       # Total Idle time Per DRAM Rank
system.mem_ctrls_1.memoryStateTime::IDLE      2285001                       # Time in different power states
system.mem_ctrls_1.memoryStateTime::REF      19022000                       # Time in different power states
system.mem_ctrls_1.memoryStateTime::SREF   4436077750                       # Time in different power states
system.mem_ctrls_1.memoryStateTime::PRE_PDN     49730750                       # Time in different power states
system.mem_ctrls_1.memoryStateTime::ACT     212716721                       # Time in different power states
system.mem_ctrls_1.memoryStateTime::ACT_PDN    246623778                       # Time in different power states
system.pwrStateResidencyTicks::UNDEFINED   4966456000                       # Cumulative time (in ticks) in various power states
system.cpu0.branchPred.lookups                 847671                       # Number of BP lookups
system.cpu0.branchPred.condPredicted           847671                       # Number of conditional branches predicted
system.cpu0.branchPred.condIncorrect             8649                       # Number of conditional branches incorrect
system.cpu0.branchPred.BTBLookups              583933                       # Number of BTB lookups
system.cpu0.branchPred.BTBHits                      0                       # Number of BTB hits
system.cpu0.branchPred.BTBCorrect                   0                       # Number of correct BTB predictions (this stat may not work properly.
system.cpu0.branchPred.BTBHitPct             0.000000                       # BTB Hit Percentage
system.cpu0.branchPred.usedRAS                  47258                       # Number of times the RAS was used to get a target.
system.cpu0.branchPred.RASInCorrect               435                       # Number of incorrect RAS predictions.
system.cpu0.branchPred.indirectLookups         583933                       # Number of indirect predictor lookups.
system.cpu0.branchPred.indirectHits            425832                       # Number of indirect target hits.
system.cpu0.branchPred.indirectMisses          158101                       # Number of indirect misses.
system.cpu0.branchPredindirectMispredicted         4589                       # Number of mispredicted indirect branches.
system.cpu_voltage_domain.voltage                   1                       # Voltage in Volts
system.cpu0.clk_domain.clock                      500                       # Clock period in ticks
system.cpu0.dtb.walker.pwrStateResidencyTicks::UNDEFINED   4966456000                       # Cumulative time (in ticks) in various power states
system.cpu0.apic_clk_domain.clock                8000                       # Clock period in ticks
system.cpu0.interrupts.pwrStateResidencyTicks::UNDEFINED   4966456000                       # Cumulative time (in ticks) in various power states
system.cpu0.itb.walker.pwrStateResidencyTicks::UNDEFINED   4966456000                       # Cumulative time (in ticks) in various power states
system.cpu0.workload.num_syscalls               44874                       # Number of system calls
system.cpu0.pwrStateResidencyTicks::ON     4966456000                       # Cumulative time (in ticks) in various power states
system.cpu0.numCycles                         5339422                       # number of cpu cycles simulated
system.cpu0.numWorkItemsStarted                     0                       # number of work items this cpu started
system.cpu0.numWorkItemsCompleted                   0                       # number of work items this cpu completed
system.cpu0.fetch.icacheStallCycles            356661                       # Number of cycles fetch is stalled on an Icache miss
system.cpu0.fetch.Insts                       2577494                       # Number of instructions fetch has processed
system.cpu0.fetch.Branches                     847671                       # Number of branches that fetch encountered
system.cpu0.fetch.predictedBranches            473090                       # Number of branches that fetch has predicted taken
system.cpu0.fetch.Cycles                      4877792                       # Number of cycles fetch has run and was not squashing or blocked
system.cpu0.fetch.SquashCycles                  17451                       # Number of cycles fetch has spent squashing
system.cpu0.fetch.MiscStallCycles               10577                       # Number of cycles fetch has spent waiting on interrupts, or bad addresses, or out of MSHRs
system.cpu0.fetch.NoActiveThreadStallCycles           10                       # Number of stall cycles due to no active thread to fetch from
system.cpu0.fetch.PendingTrapStallCycles          451                       # Number of stall cycles due to pending traps
system.cpu0.fetch.PendingQuiesceStallCycles           14                       # Number of stall cycles due to pending quiesce instructions
system.cpu0.fetch.IcacheWaitRetryStallCycles         6388                       # Number of stall cycles due to full MSHR
system.cpu0.fetch.CacheLines                   326256                       # Number of cache lines fetched
system.cpu0.fetch.IcacheSquashes                 2652                       # Number of outstanding Icache misses that were squashed
system.cpu0.fetch.rateDist::samples           5260618                       # Number of instructions fetched each cycle (Total)
system.cpu0.fetch.rateDist::mean             0.967759                       # Number of instructions fetched each cycle (Total)
system.cpu0.fetch.rateDist::stdev            2.354747                       # Number of instructions fetched each cycle (Total)
system.cpu0.fetch.rateDist::underflows              0      0.00%      0.00% # Number of instructions fetched each cycle (Total)
system.cpu0.fetch.rateDist::0                 4398981     83.62%     83.62% # Number of instructions fetched each cycle (Total)
system.cpu0.fetch.rateDist::1                    8492      0.16%     83.78% # Number of instructions fetched each cycle (Total)
system.cpu0.fetch.rateDist::2                   26008      0.49%     84.28% # Number of instructions fetched each cycle (Total)
system.cpu0.fetch.rateDist::3                  102389      1.95%     86.22% # Number of instructions fetched each cycle (Total)
system.cpu0.fetch.rateDist::4                  224357      4.26%     90.49% # Number of instructions fetched each cycle (Total)
system.cpu0.fetch.rateDist::5                    8005      0.15%     90.64% # Number of instructions fetched each cycle (Total)
system.cpu0.fetch.rateDist::6                   28807      0.55%     91.19% # Number of instructions fetched each cycle (Total)
system.cpu0.fetch.rateDist::7                   95591      1.82%     93.00% # Number of instructions fetched each cycle (Total)
system.cpu0.fetch.rateDist::8                  367988      7.00%    100.00% # Number of instructions fetched each cycle (Total)
system.cpu0.fetch.rateDist::overflows               0      0.00%    100.00% # Number of instructions fetched each cycle (Total)
system.cpu0.fetch.rateDist::min_value               0                       # Number of instructions fetched each cycle (Total)
system.cpu0.fetch.rateDist::max_value               8                       # Number of instructions fetched each cycle (Total)
system.cpu0.fetch.rateDist::total             5260618                       # Number of instructions fetched each cycle (Total)
system.cpu0.fetch.branchRate                 0.158757                       # Number of branch fetches per cycle
system.cpu0.fetch.rate                       0.482729                       # Number of inst fetches per cycle
system.cpu0.decode.IdleCycles                  228164                       # Number of cycles decode is idle
system.cpu0.decode.BlockedCycles              4371840                       # Number of cycles decode is blocked
system.cpu0.decode.RunCycles                   260174                       # Number of cycles decode is running
system.cpu0.decode.UnblockCycles               391705                       # Number of cycles decode is unblocking
system.cpu0.decode.SquashCycles                  8725                       # Number of cycles decode is squashing
system.cpu0.decode.DecodedInsts               5007347                       # Number of instructions handled by decode
system.cpu0.rename.SquashCycles                  8725                       # Number of cycles rename is squashing
system.cpu0.rename.IdleCycles                  314455                       # Number of cycles rename is idle
system.cpu0.rename.BlockCycles                 751512                       # Number of cycles rename is blocking
system.cpu0.rename.serializeStallCycles       3034936                       # count of cycles rename stalled for serializing inst
system.cpu0.rename.RunCycles                   406717                       # Number of cycles rename is running
system.cpu0.rename.UnblockCycles               744263                       # Number of cycles rename is unblocking
system.cpu0.rename.RenamedInsts               4964316                       # Number of instructions processed by rename
system.cpu0.rename.ROBFullEvents               370463                       # Number of times rename has blocked due to ROB full
system.cpu0.rename.IQFullEvents                 13751                       # Number of times rename has blocked due to IQ full
system.cpu0.rename.LQFullEvents                146659                       # Number of times rename has blocked due to LQ full
system.cpu0.rename.SQFullEvents                 61728                       # Number of times rename has blocked due to SQ full
system.cpu0.rename.RenamedOperands            5486828                       # Number of destination operands rename has renamed
system.cpu0.rename.RenameLookups             11369684                       # Number of register rename lookups that rename has made
system.cpu0.rename.int_rename_lookups         5750202                       # Number of integer rename lookups
system.cpu0.rename.fp_rename_lookups            18472                       # Number of floating rename lookups
system.cpu0.rename.CommittedMaps              4980846                       # Number of HB maps that are committed
system.cpu0.rename.UndoneMaps                  505982                       # Number of HB maps that are undone due to squashing
system.cpu0.rename.serializingInsts             44906                       # count of serializing insts renamed
system.cpu0.rename.tempSerializingInsts         44909                       # count of temporary serializing insts renamed
system.cpu0.rename.skidInsts                  2450049                       # count of insts added to the skid buffer
system.cpu0.memDep0.insertedLoads              712213                       # Number of loads inserted to the mem dependence unit.
system.cpu0.memDep0.insertedStores              74157                       # Number of stores inserted to the mem dependence unit.
system.cpu0.memDep0.conflictingLoads             7271                       # Number of conflicting loads.
system.cpu0.memDep0.conflictingStores             902                       # Number of conflicting stores.
system.cpu0.iq.iqInstsAdded                   4844825                       # Number of instructions added to the IQ (excludes non-spec)
system.cpu0.iq.iqNonSpecInstsAdded              44957                       # Number of non-speculative instructions added to the IQ
system.cpu0.iq.iqInstsIssued                  4888568                       # Number of instructions issued
system.cpu0.iq.iqSquashedInstsIssued             6290                       # Number of squashed instructions issued
system.cpu0.iq.iqSquashedInstsExamined         334794                       # Number of squashed instructions iterated over during squash; mainly for profiling
system.cpu0.iq.iqSquashedOperandsExamined       506175                       # Number of squashed operands that are examined and possibly removed from graph
system.cpu0.iq.iqSquashedNonSpecRemoved            83                       # Number of squashed non-spec instructions that were removed
system.cpu0.iq.issued_per_cycle::samples      5260618                       # Number of insts issued each cycle
system.cpu0.iq.issued_per_cycle::mean        0.929276                       # Number of insts issued each cycle
system.cpu0.iq.issued_per_cycle::stdev       1.673624                       # Number of insts issued each cycle
system.cpu0.iq.issued_per_cycle::underflows            0      0.00%      0.00% # Number of insts issued each cycle
system.cpu0.iq.issued_per_cycle::0            3519823     66.91%     66.91% # Number of insts issued each cycle
system.cpu0.iq.issued_per_cycle::1             557547     10.60%     77.51% # Number of insts issued each cycle
system.cpu0.iq.issued_per_cycle::2             323091      6.14%     83.65% # Number of insts issued each cycle
system.cpu0.iq.issued_per_cycle::3             355026      6.75%     90.40% # Number of insts issued each cycle
system.cpu0.iq.issued_per_cycle::4             191385      3.64%     94.04% # Number of insts issued each cycle
system.cpu0.iq.issued_per_cycle::5             109375      2.08%     96.12% # Number of insts issued each cycle
system.cpu0.iq.issued_per_cycle::6             135407      2.57%     98.69% # Number of insts issued each cycle
system.cpu0.iq.issued_per_cycle::7              56808      1.08%     99.77% # Number of insts issued each cycle
system.cpu0.iq.issued_per_cycle::8              12156      0.23%    100.00% # Number of insts issued each cycle
system.cpu0.iq.issued_per_cycle::overflows            0      0.00%    100.00% # Number of insts issued each cycle
system.cpu0.iq.issued_per_cycle::min_value            0                       # Number of insts issued each cycle
system.cpu0.iq.issued_per_cycle::max_value            8                       # Number of insts issued each cycle
system.cpu0.iq.issued_per_cycle::total        5260618                       # Number of insts issued each cycle
system.cpu0.iq.fu_full::No_OpClass                  0      0.00%      0.00% # attempts to use FU when none available
system.cpu0.iq.fu_full::IntAlu                  27895     62.18%     62.18% # attempts to use FU when none available
system.cpu0.iq.fu_full::IntMult                     0      0.00%     62.18% # attempts to use FU when none available
system.cpu0.iq.fu_full::IntDiv                      0      0.00%     62.18% # attempts to use FU when none available
system.cpu0.iq.fu_full::FloatAdd                   46      0.10%     62.28% # attempts to use FU when none available
system.cpu0.iq.fu_full::FloatCmp                    0      0.00%     62.28% # attempts to use FU when none available
system.cpu0.iq.fu_full::FloatCvt                    0      0.00%     62.28% # attempts to use FU when none available
system.cpu0.iq.fu_full::FloatMult                   0      0.00%     62.28% # attempts to use FU when none available
system.cpu0.iq.fu_full::FloatMultAcc                0      0.00%     62.28% # attempts to use FU when none available
system.cpu0.iq.fu_full::FloatDiv                    0      0.00%     62.28% # attempts to use FU when none available
system.cpu0.iq.fu_full::FloatMisc                   0      0.00%     62.28% # attempts to use FU when none available
system.cpu0.iq.fu_full::FloatSqrt                   0      0.00%     62.28% # attempts to use FU when none available
system.cpu0.iq.fu_full::SimdAdd                     0      0.00%     62.28% # attempts to use FU when none available
system.cpu0.iq.fu_full::SimdAddAcc                  0      0.00%     62.28% # attempts to use FU when none available
system.cpu0.iq.fu_full::SimdAlu                     0      0.00%     62.28% # attempts to use FU when none available
system.cpu0.iq.fu_full::SimdCmp                     0      0.00%     62.28% # attempts to use FU when none available
system.cpu0.iq.fu_full::SimdCvt                     0      0.00%     62.28% # attempts to use FU when none available
system.cpu0.iq.fu_full::SimdMisc                    0      0.00%     62.28% # attempts to use FU when none available
system.cpu0.iq.fu_full::SimdMult                    0      0.00%     62.28% # attempts to use FU when none available
system.cpu0.iq.fu_full::SimdMultAcc                 0      0.00%     62.28% # attempts to use FU when none available
system.cpu0.iq.fu_full::SimdShift                   0      0.00%     62.28% # attempts to use FU when none available
system.cpu0.iq.fu_full::SimdShiftAcc                0      0.00%     62.28% # attempts to use FU when none available
system.cpu0.iq.fu_full::SimdSqrt                    0      0.00%     62.28% # attempts to use FU when none available
system.cpu0.iq.fu_full::SimdFloatAdd                0      0.00%     62.28% # attempts to use FU when none available
system.cpu0.iq.fu_full::SimdFloatAlu                0      0.00%     62.28% # attempts to use FU when none available
system.cpu0.iq.fu_full::SimdFloatCmp                0      0.00%     62.28% # attempts to use FU when none available
system.cpu0.iq.fu_full::SimdFloatCvt                0      0.00%     62.28% # attempts to use FU when none available
system.cpu0.iq.fu_full::SimdFloatDiv                0      0.00%     62.28% # attempts to use FU when none available
system.cpu0.iq.fu_full::SimdFloatMisc               0      0.00%     62.28% # attempts to use FU when none available
system.cpu0.iq.fu_full::SimdFloatMult               0      0.00%     62.28% # attempts to use FU when none available
system.cpu0.iq.fu_full::SimdFloatMultAcc            0      0.00%     62.28% # attempts to use FU when none available
system.cpu0.iq.fu_full::SimdFloatSqrt               0      0.00%     62.28% # attempts to use FU when none available
system.cpu0.iq.fu_full::MemRead                 16012     35.69%     97.97% # attempts to use FU when none available
system.cpu0.iq.fu_full::MemWrite                  762      1.70%     99.67% # attempts to use FU when none available
system.cpu0.iq.fu_full::FloatMemRead               98      0.22%     99.88% # attempts to use FU when none available
system.cpu0.iq.fu_full::FloatMemWrite              52      0.12%    100.00% # attempts to use FU when none available
system.cpu0.iq.fu_full::IprAccess                   0      0.00%    100.00% # attempts to use FU when none available
system.cpu0.iq.fu_full::InstPrefetch                0      0.00%    100.00% # attempts to use FU when none available
system.cpu0.iq.FU_type_0::No_OpClass             4103      0.08%      0.08% # Type of FU issued
system.cpu0.iq.FU_type_0::IntAlu              3974742     81.31%     81.39% # Type of FU issued
system.cpu0.iq.FU_type_0::IntMult               22466      0.46%     81.85% # Type of FU issued
system.cpu0.iq.FU_type_0::IntDiv                 1207      0.02%     81.88% # Type of FU issued
system.cpu0.iq.FU_type_0::FloatAdd               4260      0.09%     81.96% # Type of FU issued
system.cpu0.iq.FU_type_0::FloatCmp                  0      0.00%     81.96% # Type of FU issued
system.cpu0.iq.FU_type_0::FloatCvt                  0      0.00%     81.96% # Type of FU issued
system.cpu0.iq.FU_type_0::FloatMult                 0      0.00%     81.96% # Type of FU issued
system.cpu0.iq.FU_type_0::FloatMultAcc              0      0.00%     81.96% # Type of FU issued
system.cpu0.iq.FU_type_0::FloatDiv                  0      0.00%     81.96% # Type of FU issued
system.cpu0.iq.FU_type_0::FloatMisc                 0      0.00%     81.96% # Type of FU issued
system.cpu0.iq.FU_type_0::FloatSqrt                 0      0.00%     81.96% # Type of FU issued
system.cpu0.iq.FU_type_0::SimdAdd                   0      0.00%     81.96% # Type of FU issued
system.cpu0.iq.FU_type_0::SimdAddAcc                0      0.00%     81.96% # Type of FU issued
system.cpu0.iq.FU_type_0::SimdAlu                   0      0.00%     81.96% # Type of FU issued
system.cpu0.iq.FU_type_0::SimdCmp                   0      0.00%     81.96% # Type of FU issued
system.cpu0.iq.FU_type_0::SimdCvt                   0      0.00%     81.96% # Type of FU issued
system.cpu0.iq.FU_type_0::SimdMisc                  0      0.00%     81.96% # Type of FU issued
system.cpu0.iq.FU_type_0::SimdMult                  0      0.00%     81.96% # Type of FU issued
system.cpu0.iq.FU_type_0::SimdMultAcc               0      0.00%     81.96% # Type of FU issued
system.cpu0.iq.FU_type_0::SimdShift                 0      0.00%     81.96% # Type of FU issued
system.cpu0.iq.FU_type_0::SimdShiftAcc              0      0.00%     81.96% # Type of FU issued
system.cpu0.iq.FU_type_0::SimdSqrt                  0      0.00%     81.96% # Type of FU issued
system.cpu0.iq.FU_type_0::SimdFloatAdd              0      0.00%     81.96% # Type of FU issued
system.cpu0.iq.FU_type_0::SimdFloatAlu              0      0.00%     81.96% # Type of FU issued
system.cpu0.iq.FU_type_0::SimdFloatCmp              0      0.00%     81.96% # Type of FU issued
system.cpu0.iq.FU_type_0::SimdFloatCvt              0      0.00%     81.96% # Type of FU issued
system.cpu0.iq.FU_type_0::SimdFloatDiv              0      0.00%     81.96% # Type of FU issued
system.cpu0.iq.FU_type_0::SimdFloatMisc             0      0.00%     81.96% # Type of FU issued
system.cpu0.iq.FU_type_0::SimdFloatMult             0      0.00%     81.96% # Type of FU issued
system.cpu0.iq.FU_type_0::SimdFloatMultAcc            0      0.00%     81.96% # Type of FU issued
system.cpu0.iq.FU_type_0::SimdFloatSqrt             0      0.00%     81.96% # Type of FU issued
system.cpu0.iq.FU_type_0::MemRead              807591     16.52%     98.48% # Type of FU issued
system.cpu0.iq.FU_type_0::MemWrite              69608      1.42%     99.91% # Type of FU issued
system.cpu0.iq.FU_type_0::FloatMemRead           4143      0.08%     99.99% # Type of FU issued
system.cpu0.iq.FU_type_0::FloatMemWrite           448      0.01%    100.00% # Type of FU issued
system.cpu0.iq.FU_type_0::IprAccess                 0      0.00%    100.00% # Type of FU issued
system.cpu0.iq.FU_type_0::InstPrefetch              0      0.00%    100.00% # Type of FU issued
system.cpu0.iq.FU_type_0::total               4888568                       # Type of FU issued
system.cpu0.iq.rate                          0.915561                       # Inst issue rate
system.cpu0.iq.fu_busy_cnt                      44865                       # FU busy when requested
system.cpu0.iq.fu_busy_rate                  0.009178                       # FU busy rate (busy events/executed inst)
system.cpu0.iq.int_inst_queue_reads          15070504                       # Number of integer instruction queue reads
system.cpu0.iq.int_inst_queue_writes          5207920                       # Number of integer instruction queue writes
system.cpu0.iq.int_inst_queue_wakeup_accesses      4739789                       # Number of integer instruction queue wakeup accesses
system.cpu0.iq.fp_inst_queue_reads              18405                       # Number of floating instruction queue reads
system.cpu0.iq.fp_inst_queue_writes             16726                       # Number of floating instruction queue writes
system.cpu0.iq.fp_inst_queue_wakeup_accesses         6221                       # Number of floating instruction queue wakeup accesses
system.cpu0.iq.int_alu_accesses               4920170                       # Number of integer alu accesses
system.cpu0.iq.fp_alu_accesses                   9160                       # Number of floating point alu accesses
system.cpu0.iew.lsq.thread0.forwLoads           16031                       # Number of loads that had data forwarded from stores
system.cpu0.iew.lsq.thread0.invAddrLoads            0                       # Number of loads ignored due to an invalid address
system.cpu0.iew.lsq.thread0.squashedLoads        46123                       # Number of loads squashed
system.cpu0.iew.lsq.thread0.ignoredResponses           22                       # Number of memory responses ignored because the instruction is squashed
system.cpu0.iew.lsq.thread0.memOrderViolation           74                       # Number of memory ordering violations
system.cpu0.iew.lsq.thread0.squashedStores         9890                       # Number of stores squashed
system.cpu0.iew.lsq.thread0.invAddrSwpfs            0                       # Number of software prefetches ignored due to an invalid address
system.cpu0.iew.lsq.thread0.blockedLoads            0                       # Number of blocked loads due to partial load-store forwarding
system.cpu0.iew.lsq.thread0.rescheduledLoads            5                       # Number of loads that were rescheduled
system.cpu0.iew.lsq.thread0.cacheBlocked       112237                       # Number of times an access to memory failed due to the cache being blocked
system.cpu0.iew.iewIdleCycles                       0                       # Number of cycles IEW is idle
system.cpu0.iew.iewSquashCycles                  8725                       # Number of cycles IEW is squashing
system.cpu0.iew.iewBlockCycles                 115105                       # Number of cycles IEW is blocking
system.cpu0.iew.iewUnblockCycles                 7773                       # Number of cycles IEW is unblocking
system.cpu0.iew.iewDispatchedInsts            4889782                       # Number of instructions dispatched to IQ
system.cpu0.iew.iewDispSquashedInsts             2169                       # Number of squashed instructions skipped by dispatch
system.cpu0.iew.iewDispLoadInsts               712213                       # Number of dispatched load instructions
system.cpu0.iew.iewDispStoreInsts               74157                       # Number of dispatched store instructions
system.cpu0.iew.iewDispNonSpecInsts             44919                       # Number of dispatched non-speculative instructions
system.cpu0.iew.iewIQFullEvents                   550                       # Number of times the IQ has become full, causing a stall
system.cpu0.iew.iewLSQFullEvents                 6830                       # Number of times the LSQ has become full, causing a stall
system.cpu0.iew.memOrderViolationEvents            74                       # Number of memory order violations
system.cpu0.iew.predictedTakenIncorrect          1882                       # Number of branches that were predicted taken incorrectly
system.cpu0.iew.predictedNotTakenIncorrect         9112                       # Number of branches that were predicted not taken incorrectly
system.cpu0.iew.branchMispredicts               10994                       # Number of branch mispredicts detected at execute
system.cpu0.iew.iewExecutedInsts              4867678                       # Number of executed instructions
system.cpu0.iew.iewExecLoadInsts               805512                       # Number of load instructions executed
system.cpu0.iew.iewExecSquashedInsts            20890                       # Number of squashed instructions skipped in execute
system.cpu0.iew.exec_swp                            0                       # number of swp insts executed
system.cpu0.iew.exec_nop                            0                       # number of nop insts executed
system.cpu0.iew.exec_refs                      874295                       # number of memory reference insts executed
system.cpu0.iew.exec_branches                  796019                       # Number of branches executed
system.cpu0.iew.exec_stores                     68783                       # Number of stores executed
system.cpu0.iew.exec_rate                    0.911649                       # Inst execution rate
system.cpu0.iew.wb_sent                       4751067                       # cumulative count of insts sent to commit
system.cpu0.iew.wb_count                      4746010                       # cumulative count of insts written-back
system.cpu0.iew.wb_producers                  3337463                       # num instructions producing a value
system.cpu0.iew.wb_consumers                  4872353                       # num instructions consuming a value
system.cpu0.iew.wb_rate                      0.888862                       # insts written-back per cycle
system.cpu0.iew.wb_fanout                    0.684980                       # average fanout of values written-back
system.cpu0.commit.commitSquashedInsts         334858                       # The number of squashed insts skipped by commit
system.cpu0.commit.commitNonSpecStalls          44874                       # The number of times commit has been forced to stall to communicate backwards
system.cpu0.commit.branchMispredicts             8669                       # The number of times a branch was mispredicted
system.cpu0.commit.committed_per_cycle::samples      5210030                       # Number of insts commited each cycle
system.cpu0.commit.committed_per_cycle::mean     0.874273                       # Number of insts commited each cycle
system.cpu0.commit.committed_per_cycle::stdev     2.073683                       # Number of insts commited each cycle
system.cpu0.commit.committed_per_cycle::underflows            0      0.00%      0.00% # Number of insts commited each cycle
system.cpu0.commit.committed_per_cycle::0      3972443     76.25%     76.25% # Number of insts commited each cycle
system.cpu0.commit.committed_per_cycle::1       422995      8.12%     84.36% # Number of insts commited each cycle
system.cpu0.commit.committed_per_cycle::2        80686      1.55%     85.91% # Number of insts commited each cycle
system.cpu0.commit.committed_per_cycle::3       320270      6.15%     92.06% # Number of insts commited each cycle
system.cpu0.commit.committed_per_cycle::4        57813      1.11%     93.17% # Number of insts commited each cycle
system.cpu0.commit.committed_per_cycle::5         5450      0.10%     93.28% # Number of insts commited each cycle
system.cpu0.commit.committed_per_cycle::6        24051      0.46%     93.74% # Number of insts commited each cycle
system.cpu0.commit.committed_per_cycle::7         3573      0.07%     93.81% # Number of insts commited each cycle
system.cpu0.commit.committed_per_cycle::8       322749      6.19%    100.00% # Number of insts commited each cycle
system.cpu0.commit.committed_per_cycle::overflows            0      0.00%    100.00% # Number of insts commited each cycle
system.cpu0.commit.committed_per_cycle::min_value            0                       # Number of insts commited each cycle
system.cpu0.commit.committed_per_cycle::max_value            8                       # Number of insts commited each cycle
system.cpu0.commit.committed_per_cycle::total      5210030                       # Number of insts commited each cycle
system.cpu0.commit.committedInsts             2293564                       # Number of instructions committed
system.cpu0.commit.committedOps               4554988                       # Number of ops (including micro ops) committed
system.cpu0.commit.swp_count                        0                       # Number of s/w prefetches committed
system.cpu0.commit.refs                        730357                       # Number of memory references committed
system.cpu0.commit.loads                       666090                       # Number of loads committed
system.cpu0.commit.membars                          0                       # Number of memory barriers committed
system.cpu0.commit.branches                    782730                       # Number of branches committed
system.cpu0.commit.fp_insts                      3676                       # Number of committed floating point instructions.
system.cpu0.commit.int_insts                  4551544                       # Number of committed integer instructions.
system.cpu0.commit.function_calls               45541                       # Number of function calls committed.
system.cpu0.commit.op_class_0::No_OpClass         1334      0.03%      0.03% # Class of committed instruction
system.cpu0.commit.op_class_0::IntAlu         3797309     83.37%     83.40% # Class of committed instruction
system.cpu0.commit.op_class_0::IntMult          22446      0.49%     83.89% # Class of committed instruction
system.cpu0.commit.op_class_0::IntDiv            1179      0.03%     83.91% # Class of committed instruction
system.cpu0.commit.op_class_0::FloatAdd          2363      0.05%     83.97% # Class of committed instruction
system.cpu0.commit.op_class_0::FloatCmp             0      0.00%     83.97% # Class of committed instruction
system.cpu0.commit.op_class_0::FloatCvt             0      0.00%     83.97% # Class of committed instruction
system.cpu0.commit.op_class_0::FloatMult            0      0.00%     83.97% # Class of committed instruction
system.cpu0.commit.op_class_0::FloatMultAcc            0      0.00%     83.97% # Class of committed instruction
system.cpu0.commit.op_class_0::FloatDiv             0      0.00%     83.97% # Class of committed instruction
system.cpu0.commit.op_class_0::FloatMisc            0      0.00%     83.97% # Class of committed instruction
system.cpu0.commit.op_class_0::FloatSqrt            0      0.00%     83.97% # Class of committed instruction
system.cpu0.commit.op_class_0::SimdAdd              0      0.00%     83.97% # Class of committed instruction
system.cpu0.commit.op_class_0::SimdAddAcc            0      0.00%     83.97% # Class of committed instruction
system.cpu0.commit.op_class_0::SimdAlu              0      0.00%     83.97% # Class of committed instruction
system.cpu0.commit.op_class_0::SimdCmp              0      0.00%     83.97% # Class of committed instruction
system.cpu0.commit.op_class_0::SimdCvt              0      0.00%     83.97% # Class of committed instruction
system.cpu0.commit.op_class_0::SimdMisc             0      0.00%     83.97% # Class of committed instruction
system.cpu0.commit.op_class_0::SimdMult             0      0.00%     83.97% # Class of committed instruction
system.cpu0.commit.op_class_0::SimdMultAcc            0      0.00%     83.97% # Class of committed instruction
system.cpu0.commit.op_class_0::SimdShift            0      0.00%     83.97% # Class of committed instruction
system.cpu0.commit.op_class_0::SimdShiftAcc            0      0.00%     83.97% # Class of committed instruction
system.cpu0.commit.op_class_0::SimdSqrt             0      0.00%     83.97% # Class of committed instruction
system.cpu0.commit.op_class_0::SimdFloatAdd            0      0.00%     83.97% # Class of committed instruction
system.cpu0.commit.op_class_0::SimdFloatAlu            0      0.00%     83.97% # Class of committed instruction
system.cpu0.commit.op_class_0::SimdFloatCmp            0      0.00%     83.97% # Class of committed instruction
system.cpu0.commit.op_class_0::SimdFloatCvt            0      0.00%     83.97% # Class of committed instruction
system.cpu0.commit.op_class_0::SimdFloatDiv            0      0.00%     83.97% # Class of committed instruction
system.cpu0.commit.op_class_0::SimdFloatMisc            0      0.00%     83.97% # Class of committed instruction
system.cpu0.commit.op_class_0::SimdFloatMult            0      0.00%     83.97% # Class of committed instruction
system.cpu0.commit.op_class_0::SimdFloatMultAcc            0      0.00%     83.97% # Class of committed instruction
system.cpu0.commit.op_class_0::SimdFloatSqrt            0      0.00%     83.97% # Class of committed instruction
system.cpu0.commit.op_class_0::MemRead         665234     14.60%     98.57% # Class of committed instruction
system.cpu0.commit.op_class_0::MemWrite         63867      1.40%     99.97% # Class of committed instruction
system.cpu0.commit.op_class_0::FloatMemRead          856      0.02%     99.99% # Class of committed instruction
system.cpu0.commit.op_class_0::FloatMemWrite          400      0.01%    100.00% # Class of committed instruction
system.cpu0.commit.op_class_0::IprAccess            0      0.00%    100.00% # Class of committed instruction
system.cpu0.commit.op_class_0::InstPrefetch            0      0.00%    100.00% # Class of committed instruction
system.cpu0.commit.op_class_0::total          4554988                       # Class of committed instruction
system.cpu0.commit.bw_lim_events               322749                       # number cycles where commit BW limit reached
system.cpu0.rob.rob_reads                     9777114                       # The number of ROB reads
system.cpu0.rob.rob_writes                    9830936                       # The number of ROB writes
system.cpu0.timesIdled                            782                       # Number of times that the entire CPU went into an idle state and unscheduled itself
system.cpu0.idleCycles                          78804                       # Total number of cycles that the CPU has spent unscheduled due to idling
system.cpu0.committedInsts                    2293564                       # Number of Instructions Simulated
system.cpu0.committedOps                      4554988                       # Number of Ops (including micro ops) Simulated
system.cpu0.cpi                              2.328002                       # CPI: Cycles Per Instruction
system.cpu0.cpi_total                        2.328002                       # CPI: Total CPI of All Threads
system.cpu0.ipc                              0.429553                       # IPC: Instructions Per Cycle
system.cpu0.ipc_total                        0.429553                       # IPC: Total IPC of All Threads
system.cpu0.int_regfile_reads                 5600112                       # number of integer regfile reads
system.cpu0.int_regfile_writes                3944525                       # number of integer regfile writes
system.cpu0.fp_regfile_reads                     9310                       # number of floating regfile reads
system.cpu0.fp_regfile_writes                    5401                       # number of floating regfile writes
system.cpu0.cc_regfile_reads                  2760886                       # number of cc regfile reads
system.cpu0.cc_regfile_writes                 1344341                       # number of cc regfile writes
system.cpu0.misc_regfile_reads                2659510                       # number of misc regfile reads
system.cpu1.branchPred.lookups                1315391                       # Number of BP lookups
system.cpu1.branchPred.condPredicted          1315391                       # Number of conditional branches predicted
system.cpu1.branchPred.condIncorrect             8394                       # Number of conditional branches incorrect
system.cpu1.branchPred.BTBLookups             1208391                       # Number of BTB lookups
system.cpu1.branchPred.BTBHits                      0                       # Number of BTB hits
system.cpu1.branchPred.BTBCorrect                   0                       # Number of correct BTB predictions (this stat may not work properly.
system.cpu1.branchPred.BTBHitPct             0.000000                       # BTB Hit Percentage
system.cpu1.branchPred.usedRAS                  65527                       # Number of times the RAS was used to get a target.
system.cpu1.branchPred.RASInCorrect               457                       # Number of incorrect RAS predictions.
system.cpu1.branchPred.indirectLookups        1208391                       # Number of indirect predictor lookups.
system.cpu1.branchPred.indirectHits            671040                       # Number of indirect target hits.
system.cpu1.branchPred.indirectMisses          537351                       # Number of indirect misses.
system.cpu1.branchPredindirectMispredicted         4214                       # Number of mispredicted indirect branches.
system.cpu1.clk_domain.clock                      500                       # Clock period in ticks
system.cpu1.dtb.walker.pwrStateResidencyTicks::UNDEFINED   4966456000                       # Cumulative time (in ticks) in various power states
system.cpu1.apic_clk_domain.clock                8000                       # Clock period in ticks
system.cpu1.interrupts.pwrStateResidencyTicks::UNDEFINED   4966456000                       # Cumulative time (in ticks) in various power states
system.cpu1.itb.walker.pwrStateResidencyTicks::UNDEFINED   4966456000                       # Cumulative time (in ticks) in various power states
system.cpu1.workload.num_syscalls               63256                       # Number of system calls
system.cpu1.pwrStateResidencyTicks::ON     4966456000                       # Cumulative time (in ticks) in various power states
system.cpu1.numCycles                         8070524                       # number of cpu cycles simulated
system.cpu1.numWorkItemsStarted                     0                       # number of work items this cpu started
system.cpu1.numWorkItemsCompleted                   0                       # number of work items this cpu completed
system.cpu1.fetch.icacheStallCycles            519937                       # Number of cycles fetch is stalled on an Icache miss
system.cpu1.fetch.Insts                       4035776                       # Number of instructions fetch has processed
system.cpu1.fetch.Branches                    1315391                       # Number of branches that fetch encountered
system.cpu1.fetch.predictedBranches            736567                       # Number of branches that fetch has predicted taken
system.cpu1.fetch.Cycles                      7444189                       # Number of cycles fetch has run and was not squashing or blocked
system.cpu1.fetch.SquashCycles                  16955                       # Number of cycles fetch has spent squashing
system.cpu1.fetch.MiscStallCycles               10875                       # Number of cycles fetch has spent waiting on interrupts, or bad addresses, or out of MSHRs
system.cpu1.fetch.NoActiveThreadStallCycles           10                       # Number of stall cycles due to no active thread to fetch from
system.cpu1.fetch.PendingTrapStallCycles          592                       # Number of stall cycles due to pending traps
system.cpu1.fetch.PendingQuiesceStallCycles           14                       # Number of stall cycles due to pending quiesce instructions
system.cpu1.fetch.IcacheWaitRetryStallCycles         7006                       # Number of stall cycles due to full MSHR
system.cpu1.fetch.CacheLines                   490747                       # Number of cache lines fetched
system.cpu1.fetch.IcacheSquashes                 2542                       # Number of outstanding Icache misses that were squashed
system.cpu1.fetch.rateDist::samples           7991100                       # Number of instructions fetched each cycle (Total)
system.cpu1.fetch.rateDist::mean             1.006476                       # Number of instructions fetched each cycle (Total)
system.cpu1.fetch.rateDist::stdev            2.391786                       # Number of instructions fetched each cycle (Total)
system.cpu1.fetch.rateDist::underflows              0      0.00%      0.00% # Number of instructions fetched each cycle (Total)
system.cpu1.fetch.rateDist::0                 6569392     82.21%     82.21% # Number of instructions fetched each cycle (Total)
system.cpu1.fetch.rateDist::1                  121113      1.52%     83.72% # Number of instructions fetched each cycle (Total)
system.cpu1.fetch.rateDist::2                   36372      0.46%     84.18% # Number of instructions fetched each cycle (Total)
system.cpu1.fetch.rateDist::3                  105098      1.32%     85.49% # Number of instructions fetched each cycle (Total)
system.cpu1.fetch.rateDist::4                  342742      4.29%     89.78% # Number of instructions fetched each cycle (Total)
system.cpu1.fetch.rateDist::5                   40957      0.51%     90.30% # Number of instructions fetched each cycle (Total)
system.cpu1.fetch.rateDist::6                   71774      0.90%     91.19% # Number of instructions fetched each cycle (Total)
system.cpu1.fetch.rateDist::7                  101915      1.28%     92.47% # Number of instructions fetched each cycle (Total)
system.cpu1.fetch.rateDist::8                  601737      7.53%    100.00% # Number of instructions fetched each cycle (Total)
system.cpu1.fetch.rateDist::overflows               0      0.00%    100.00% # Number of instructions fetched each cycle (Total)
system.cpu1.fetch.rateDist::min_value               0                       # Number of instructions fetched each cycle (Total)
system.cpu1.fetch.rateDist::max_value               8                       # Number of instructions fetched each cycle (Total)
system.cpu1.fetch.rateDist::total             7991100                       # Number of instructions fetched each cycle (Total)
system.cpu1.fetch.branchRate                 0.162987                       # Number of branch fetches per cycle
system.cpu1.fetch.rate                       0.500064                       # Number of inst fetches per cycle
system.cpu1.decode.IdleCycles                  320279                       # Number of cycles decode is idle
system.cpu1.decode.BlockedCycles              6576985                       # Number of cycles decode is blocked
system.cpu1.decode.RunCycles                   456675                       # Number of cycles decode is running
system.cpu1.decode.UnblockCycles               628674                       # Number of cycles decode is unblocking
system.cpu1.decode.SquashCycles                  8477                       # Number of cycles decode is squashing
system.cpu1.decode.DecodedInsts               7958742                       # Number of instructions handled by decode
system.cpu1.rename.SquashCycles                  8477                       # Number of cycles rename is squashing
system.cpu1.rename.IdleCycles                  484831                       # Number of cycles rename is idle
system.cpu1.rename.BlockCycles                1187027                       # Number of cycles rename is blocking
system.cpu1.rename.serializeStallCycles       4310179                       # count of cycles rename stalled for serializing inst
system.cpu1.rename.RunCycles                   673668                       # Number of cycles rename is running
system.cpu1.rename.UnblockCycles              1326908                       # Number of cycles rename is unblocking
system.cpu1.rename.RenamedInsts               7917711                       # Number of instructions processed by rename
system.cpu1.rename.ROBFullEvents               624420                       # Number of times rename has blocked due to ROB full
system.cpu1.rename.IQFullEvents                 12515                       # Number of times rename has blocked due to IQ full
system.cpu1.rename.LQFullEvents                250414                       # Number of times rename has blocked due to LQ full
system.cpu1.rename.SQFullEvents                225516                       # Number of times rename has blocked due to SQ full
system.cpu1.rename.RenamedOperands            8780030                       # Number of destination operands rename has renamed
system.cpu1.rename.RenameLookups             17740111                       # Number of register rename lookups that rename has made
system.cpu1.rename.int_rename_lookups         9039860                       # Number of integer rename lookups
system.cpu1.rename.fp_rename_lookups            17731                       # Number of floating rename lookups
system.cpu1.rename.CommittedMaps              8288177                       # Number of HB maps that are committed
system.cpu1.rename.UndoneMaps                  491853                       # Number of HB maps that are undone due to squashing
system.cpu1.rename.serializingInsts             63293                       # count of serializing insts renamed
system.cpu1.rename.tempSerializingInsts         63297                       # count of temporary serializing insts renamed
system.cpu1.rename.skidInsts                  3907542                       # count of insts added to the skid buffer
system.cpu1.memDep0.insertedLoads             1182977                       # Number of loads inserted to the mem dependence unit.
system.cpu1.memDep0.insertedStores             130033                       # Number of stores inserted to the mem dependence unit.
system.cpu1.memDep0.conflictingLoads            81934                       # Number of conflicting loads.
system.cpu1.memDep0.conflictingStores           14906                       # Number of conflicting stores.
system.cpu1.iq.iqInstsAdded                   7781058                       # Number of instructions added to the IQ (excludes non-spec)
system.cpu1.iq.iqNonSpecInstsAdded              63337                       # Number of non-speculative instructions added to the IQ
system.cpu1.iq.iqInstsIssued                  7847318                       # Number of instructions issued
system.cpu1.iq.iqSquashedInstsIssued             6224                       # Number of squashed instructions issued
system.cpu1.iq.iqSquashedInstsExamined         324891                       # Number of squashed instructions iterated over during squash; mainly for profiling
system.cpu1.iq.iqSquashedOperandsExamined       483151                       # Number of squashed operands that are examined and possibly removed from graph
system.cpu1.iq.iqSquashedNonSpecRemoved            81                       # Number of squashed non-spec instructions that were removed
system.cpu1.iq.issued_per_cycle::samples      7991100                       # Number of insts issued each cycle
[...]
system.ruby.Directory_Controller.L_NO_W.Memory_Data          809      0.00%      0.00%
system.ruby.Directory_Controller.NO_W.Lockdown          809      0.00%      0.00%
system.ruby.Directory_Controller.NO_W.Memory_Data        17793      0.00%      0.00%
system.ruby.L1Cache_Controller.Load      |      460509     18.04%     18.04% |      721832     28.28%     46.31% |      764722     29.96%     76.27% |      535952     20.99%     97.26% |       69859      2.74%    100.00%
system.ruby.L1Cache_Controller.Load::total      2552874                      
system.ruby.L1Cache_Controller.Ifetch    |      326094     21.26%     21.26% |      490570     31.99%     53.25% |      667588     43.53%     96.78% |       49443      3.22%    100.00% |           0      0.00%    100.00%
system.ruby.L1Cache_Controller.Ifetch::total      1533695                      
system.ruby.L1Cache_Controller.Store     |       64719     13.92%     13.92% |      120743     25.96%     39.88% |      132202     28.43%     68.31% |       77532     16.67%     84.98% |       69859     15.02%    100.00%
system.ruby.L1Cache_Controller.Store::total       465055                      
system.ruby.L1Cache_Controller.L1_Replacement |        2740     13.02%     13.02% |        4008     19.05%     32.07% |        3121     14.83%     46.90% |        4571     21.72%     68.62% |        6602     31.38%    100.00%
system.ruby.L1Cache_Controller.L1_Replacement::total        21042                      
system.ruby.L1Cache_Controller.Data_Shared |         419     13.09%     13.09% |         491     15.33%     28.42% |         411     12.84%     41.26% |         444     13.87%     55.12% |        1437     44.88%    100.00%
system.ruby.L1Cache_Controller.Data_Shared::total         3202                      
system.ruby.L1Cache_Controller.Data_All_Tokens |        3889     15.46%     15.46% |        5093     20.25%     35.71% |        4281     17.02%     52.73% |        5702     22.67%     75.39% |        6190     24.61%    100.00%
system.ruby.L1Cache_Controller.Data_All_Tokens::total        25155                      
system.ruby.L1Cache_Controller.Transient_Local_GETX |        9146     22.91%     22.91% |        7961     19.94%     42.86% |        8757     21.94%     64.80% |        7329     18.36%     83.16% |        6723     16.84%    100.00%
system.ruby.L1Cache_Controller.Transient_Local_GETX::total        39916                      
system.ruby.L1Cache_Controller.Transient_Local_GETS |       14903     20.27%     20.27% |       14812     20.15%     40.42% |       14908     20.28%     60.70% |       14882     20.24%     80.95% |       14007     19.05%    100.00%
system.ruby.L1Cache_Controller.Transient_Local_GETS::total        73512                      
system.ruby.L1Cache_Controller.Persistent_GETX |         246     18.87%     18.87% |         221     16.95%     35.81% |         248     19.02%     54.83% |         263     20.17%     75.00% |         326     25.00%    100.00%
system.ruby.L1Cache_Controller.Persistent_GETX::total         1304                      
system.ruby.L1Cache_Controller.Persistent_GETS |         626     18.88%     18.88% |         583     17.58%     36.46% |         655     19.75%     56.21% |         623     18.79%     75.00% |         829     25.00%    100.00%
system.ruby.L1Cache_Controller.Persistent_GETS::total         3316                      
system.ruby.L1Cache_Controller.Own_Lock_or_Unlock |        1438     20.75%     20.75% |        1506     21.73%     42.48% |        1407     20.30%     62.78% |        1424     20.55%     83.33% |        1155     16.67%    100.00%
system.ruby.L1Cache_Controller.Own_Lock_or_Unlock::total         6930                      
system.ruby.L1Cache_Controller.Request_Timeout |        1618     26.37%     26.37% |        1333     21.73%     48.10% |        1807     29.45%     77.56% |        1377     22.44%    100.00% |           0      0.00%    100.00%
system.ruby.L1Cache_Controller.Request_Timeout::total         6135                      
system.ruby.L1Cache_Controller.Use_TimeoutNoStarvers |        3889     15.46%     15.46% |        5093     20.25%     35.71% |        4280     17.02%     52.72% |        5702     22.67%     75.39% |        6190     24.61%    100.00%
system.ruby.L1Cache_Controller.Use_TimeoutNoStarvers::total        25154                      
system.ruby.L1Cache_Controller.NP.Load   |        2264     16.74%     16.74% |        2334     17.26%     33.99% |        2267     16.76%     50.75% |        2290     16.93%     67.68% |        4371     32.32%    100.00%
system.ruby.L1Cache_Controller.NP.Load::total        13526                      
system.ruby.L1Cache_Controller.NP.Ifetch |        1211     24.96%     24.96% |        1232     25.39%     50.35% |        1203     24.79%     75.14% |        1206     24.86%    100.00% |           0      0.00%    100.00%
system.ruby.L1Cache_Controller.NP.Ifetch::total         4852                      
system.ruby.L1Cache_Controller.NP.Store  |         794      8.10%      8.10% |        1968     20.08%     28.18% |        1183     12.07%     40.25% |        2601     26.54%     66.79% |        3255     33.21%    100.00%
system.ruby.L1Cache_Controller.NP.Store::total         9801                      
system.ruby.L1Cache_Controller.NP.Transient_Local_GETX |        9146     24.01%     24.01% |        7159     18.79%     42.80% |        8757     22.99%     65.79% |        6312     16.57%     82.36% |        6721     17.64%    100.00%
system.ruby.L1Cache_Controller.NP.Transient_Local_GETX::total        38095                      
system.ruby.L1Cache_Controller.NP.Transient_Local_GETS |       14646     20.75%     20.75% |       13791     19.54%     40.29% |       14269     20.22%     60.51% |       13865     19.64%     80.15% |       14007     19.85%    100.00%
system.ruby.L1Cache_Controller.NP.Transient_Local_GETS::total        70578                      
system.ruby.L1Cache_Controller.NP.Own_Lock_or_Unlock |         872     18.87%     18.87% |         804     17.40%     36.28% |         903     19.55%     55.82% |         886     19.18%     75.00% |        1155     25.00%    100.00%
system.ruby.L1Cache_Controller.NP.Own_Lock_or_Unlock::total         4620                      
system.ruby.L1Cache_Controller.I.Store   |           1     25.00%     25.00% |           1     25.00%     50.00% |           1     25.00%     75.00% |           1     25.00%    100.00% |           0      0.00%    100.00%
system.ruby.L1Cache_Controller.I.Store::total            4                      
system.ruby.L1Cache_Controller.I.L1_Replacement |           7      2.38%      2.38% |         125     42.52%     44.90% |          37     12.59%     57.48% |         124     42.18%     99.66% |           1      0.34%    100.00%
system.ruby.L1Cache_Controller.I.L1_Replacement::total          294                      
system.ruby.L1Cache_Controller.I.Transient_Local_GETX |           0      0.00%      0.00% |         802     44.09%     44.09% |           0      0.00%     44.09% |        1017     55.91%    100.00% |           0      0.00%    100.00%
system.ruby.L1Cache_Controller.I.Transient_Local_GETX::total         1819                      
system.ruby.L1Cache_Controller.S.Load    |      360311     18.43%     18.43% |      561747     28.73%     47.16% |      592019     30.28%     77.44% |      419446     21.45%     98.90% |       21541      1.10%    100.00%
system.ruby.L1Cache_Controller.S.Load::total      1955064                      
system.ruby.L1Cache_Controller.S.Ifetch  |      180461     19.27%     19.27% |      254085     27.13%     46.39% |      501041     53.49%     99.88% |        1094      0.12%    100.00% |           0      0.00%    100.00%
system.ruby.L1Cache_Controller.S.Ifetch::total       936681                      
system.ruby.L1Cache_Controller.S.Store   |          38     21.84%     21.84% |          49     28.16%     50.00% |          38     21.84%     71.84% |          48     27.59%     99.43% |           1      0.57%    100.00%
system.ruby.L1Cache_Controller.S.Store::total          174                      
system.ruby.L1Cache_Controller.S.L1_Replacement |         198      8.17%      8.17% |         314     12.95%     21.12% |         216      8.91%     30.03% |         260     10.73%     40.76% |        1436     59.24%    100.00%
system.ruby.L1Cache_Controller.S.L1_Replacement::total         2424                      
system.ruby.L1Cache_Controller.M.Load    |       16243     15.52%     15.52% |       15010     14.34%     29.86% |       15478     14.79%     44.64% |       16958     16.20%     60.84% |       40990     39.16%    100.00%
system.ruby.L1Cache_Controller.M.Load::total       104679                      
system.ruby.L1Cache_Controller.M.Ifetch  |      143975     24.39%     24.39% |      234796     39.77%     64.16% |      164908     27.93%     92.09% |       46716      7.91%    100.00% |           0      0.00%    100.00%
system.ruby.L1Cache_Controller.M.Ifetch::total       590395                      
system.ruby.L1Cache_Controller.M.Store   |          46      3.53%      3.53% |          48      3.68%      7.21% |          48      3.68%     10.89% |          47      3.60%     14.49% |        1115     85.51%    100.00%
system.ruby.L1Cache_Controller.M.Store::total         1304                      
system.ruby.L1Cache_Controller.M.L1_Replacement |        1993     17.83%     17.83% |        2553     22.84%     40.66% |        2279     20.38%     61.05% |        2536     22.68%     83.73% |        1819     16.27%    100.00%
system.ruby.L1Cache_Controller.M.L1_Replacement::total        11180                      
system.ruby.L1Cache_Controller.M.Own_Lock_or_Unlock |         201     24.54%     24.54% |         242     29.55%     54.09% |         172     21.00%     75.09% |         204     24.91%    100.00% |           0      0.00%    100.00%
system.ruby.L1Cache_Controller.M.Own_Lock_or_Unlock::total          819                      
system.ruby.L1Cache_Controller.MM.Load   |       70183     16.27%     16.27% |      131482     30.49%     46.76% |      143853     33.35%     80.11% |       85781     19.89%    100.00% |           0      0.00%    100.00%
system.ruby.L1Cache_Controller.MM.Load::total       431299                      
system.ruby.L1Cache_Controller.MM.Store  |       58708     14.96%     14.96% |      100514     25.62%     40.58% |      121248     30.90%     71.49% |       49646     12.65%     84.14% |       62232     15.86%    100.00%
system.ruby.L1Cache_Controller.MM.Store::total       392348                      
system.ruby.L1Cache_Controller.MM.L1_Replacement |         542      7.59%      7.59% |        1016     14.22%     21.81% |         589      8.24%     30.05% |        1651     23.11%     53.16% |        3346     46.84%    100.00%
system.ruby.L1Cache_Controller.MM.L1_Replacement::total         7144                      
system.ruby.L1Cache_Controller.MM.Transient_Local_GETX |           0      0.00%      0.00% |           0      0.00%      0.00% |           0      0.00%      0.00% |           0      0.00%      0.00% |           2    100.00%    100.00%
system.ruby.L1Cache_Controller.MM.Transient_Local_GETX::total            2                      
system.ruby.L1Cache_Controller.MM.Transient_Local_GETS |         257      8.76%      8.76% |        1021     34.80%     43.56% |         639     21.78%     65.34% |        1017     34.66%    100.00% |           0      0.00%    100.00%
system.ruby.L1Cache_Controller.MM.Transient_Local_GETS::total         2934                      
system.ruby.L1Cache_Controller.MM.Own_Lock_or_Unlock |          82     24.40%     24.40% |         109     32.44%     56.85% |          80     23.81%     80.65% |          65     19.35%    100.00% |           0      0.00%    100.00%
system.ruby.L1Cache_Controller.MM.Own_Lock_or_Unlock::total          336                      
system.ruby.L1Cache_Controller.M_W.Load  |       11471     23.84%     23.84% |       11201     23.28%     47.11% |       11062     22.99%     70.10% |       11432     23.76%     93.86% |        2957      6.14%    100.00%
system.ruby.L1Cache_Controller.M_W.Load::total        48123                      
system.ruby.L1Cache_Controller.M_W.Ifetch |         447     25.30%     25.30% |         457     25.86%     51.16% |         436     24.67%     75.83% |         427     24.17%    100.00% |           0      0.00%    100.00%
system.ruby.L1Cache_Controller.M_W.Ifetch::total         1767                      
system.ruby.L1Cache_Controller.M_W.Store |          14     24.14%     24.14% |          14     24.14%     48.28% |          16     27.59%     75.86% |          14     24.14%    100.00% |           0      0.00%    100.00%
system.ruby.L1Cache_Controller.M_W.Store::total           58                      
system.ruby.L1Cache_Controller.M_W.Own_Lock_or_Unlock |          19     16.38%     16.38% |          38     32.76%     49.14% |          26     22.41%     71.55% |          33     28.45%    100.00% |           0      0.00%    100.00%
system.ruby.L1Cache_Controller.M_W.Own_Lock_or_Unlock::total          116                      
system.ruby.L1Cache_Controller.M_W.Use_TimeoutNoStarvers |        3042     20.12%     20.12% |        3061     20.25%     40.37% |        3042     20.12%     60.49% |        3038     20.10%     80.59% |        2934     19.41%    100.00%
system.ruby.L1Cache_Controller.M_W.Use_TimeoutNoStarvers::total        15117                      
system.ruby.L1Cache_Controller.MM_W.Load |          37     20.22%     20.22% |          58     31.69%     51.91% |          43     23.50%     75.41% |          45     24.59%    100.00% |           0      0.00%    100.00%
system.ruby.L1Cache_Controller.MM_W.Load::total          183                      
system.ruby.L1Cache_Controller.MM_W.Store |        5118      8.34%      8.34% |       18149     29.58%     37.92% |        9668     15.75%     53.67% |       25175     41.02%     94.69% |        3256      5.31%    100.00%
system.ruby.L1Cache_Controller.MM_W.Store::total        61366                      
system.ruby.L1Cache_Controller.MM_W.Own_Lock_or_Unlock |           5     20.00%     20.00% |           7     28.00%     48.00% |           8     32.00%     80.00% |           5     20.00%    100.00% |           0      0.00%    100.00%
system.ruby.L1Cache_Controller.MM_W.Own_Lock_or_Unlock::total           25                      
system.ruby.L1Cache_Controller.MM_W.Use_TimeoutNoStarvers |         847      8.44%      8.44% |        2032     20.25%     28.68% |        1238     12.33%     41.02% |        2664     26.54%     67.56% |        3256     32.44%    100.00%
system.ruby.L1Cache_Controller.MM_W.Use_TimeoutNoStarvers::total        10037                      
system.ruby.L1Cache_Controller.IM.Data_All_Tokens |         795      8.11%      8.11% |        1969     20.08%     28.19% |        1184     12.08%     40.27% |        2602     26.54%     66.80% |        3255     33.20%    100.00%
system.ruby.L1Cache_Controller.IM.Data_All_Tokens::total         9805                      
system.ruby.L1Cache_Controller.IM.Own_Lock_or_Unlock |          75     24.92%     24.92% |          98     32.56%     57.48% |          70     23.26%     80.73% |          58     19.27%    100.00% |           0      0.00%    100.00%
system.ruby.L1Cache_Controller.IM.Own_Lock_or_Unlock::total          301                      
system.ruby.L1Cache_Controller.IM.Request_Timeout |         285     29.75%     29.75% |         200     20.88%     50.63% |         249     25.99%     76.62% |         224     23.38%    100.00% |           0      0.00%    100.00%
system.ruby.L1Cache_Controller.IM.Request_Timeout::total          958                      
system.ruby.L1Cache_Controller.SM.Data_All_Tokens |          38     21.84%     21.84% |          49     28.16%     50.00% |          38     21.84%     71.84% |          48     27.59%     99.43% |           1      0.57%    100.00%
system.ruby.L1Cache_Controller.SM.Data_All_Tokens::total          174                      
system.ruby.L1Cache_Controller.IS.Data_Shared |         419     13.09%     13.09% |         491     15.33%     28.42% |         411     12.84%     41.26% |         444     13.87%     55.12% |        1437     44.88%    100.00%
system.ruby.L1Cache_Controller.IS.Data_Shared::total         3202                      
system.ruby.L1Cache_Controller.IS.Data_All_Tokens |        3056     20.14%     20.14% |        3075     20.26%     40.40% |        3059     20.16%     60.56% |        3052     20.11%     80.67% |        2934     19.33%    100.00%
system.ruby.L1Cache_Controller.IS.Data_All_Tokens::total        15176                      
system.ruby.L1Cache_Controller.IS.Own_Lock_or_Unlock |         184     25.81%     25.81% |         208     29.17%     54.98% |         148     20.76%     75.74% |         173     24.26%    100.00% |           0      0.00%    100.00%
system.ruby.L1Cache_Controller.IS.Own_Lock_or_Unlock::total          713                      
system.ruby.L1Cache_Controller.IS.Request_Timeout |        1333     25.75%     25.75% |        1133     21.89%     47.63% |        1558     30.09%     77.73% |        1153     22.27%    100.00% |           0      0.00%    100.00%
system.ruby.L1Cache_Controller.IS.Request_Timeout::total         5177                      
system.ruby.L1Cache_Controller.I_L.Persistent_GETX |         246     18.87%     18.87% |         221     16.95%     35.81% |         248     19.02%     54.83% |         263     20.17%     75.00% |         326     25.00%    100.00%
system.ruby.L1Cache_Controller.I_L.Persistent_GETX::total         1304                      
system.ruby.L1Cache_Controller.I_L.Persistent_GETS |         626     18.88%     18.88% |         583     17.58%     36.46% |         655     19.75%     56.21% |         623     18.79%     75.00% |         829     25.00%    100.00%
system.ruby.L1Cache_Controller.I_L.Persistent_GETS::total         3316                      
system.ruby.L2Cache_Controller.L1_GETS          18378      0.00%      0.00%
system.ruby.L2Cache_Controller.L1_GETX           9979      0.00%      0.00%
system.ruby.L2Cache_Controller.L1_INV            2936      0.00%      0.00%
system.ruby.L2Cache_Controller.L2_Replacement            6      0.00%      0.00%
system.ruby.L2Cache_Controller.Writeback_All_Tokens        20748      0.00%      0.00%
system.ruby.L2Cache_Controller.Persistent_GETX          326      0.00%      0.00%
system.ruby.L2Cache_Controller.Persistent_GETS          829      0.00%      0.00%
system.ruby.L2Cache_Controller.Own_Lock_or_Unlock         1155      0.00%      0.00%
system.ruby.L2Cache_Controller.NP.L1_GETS        15170      0.00%      0.00%
system.ruby.L2Cache_Controller.NP.L1_GETX         6360      0.00%      0.00%
system.ruby.L2Cache_Controller.NP.L1_INV         2928      0.00%      0.00%
system.ruby.L2Cache_Controller.NP.Writeback_All_Tokens        15165      0.00%      0.00%
system.ruby.L2Cache_Controller.NP.Own_Lock_or_Unlock         1155      0.00%      0.00%
system.ruby.L2Cache_Controller.I.L1_GETS            6      0.00%      0.00%
system.ruby.L2Cache_Controller.I.L1_GETX            2      0.00%      0.00%
system.ruby.L2Cache_Controller.I.L1_INV             8      0.00%      0.00%
system.ruby.L2Cache_Controller.I.Writeback_All_Tokens         3159      0.00%      0.00%
system.ruby.L2Cache_Controller.O.L1_GETX          174      0.00%      0.00%
system.ruby.L2Cache_Controller.O.Writeback_All_Tokens         2424      0.00%      0.00%
system.ruby.L2Cache_Controller.M.L1_GETS         3202      0.00%      0.00%
system.ruby.L2Cache_Controller.M.L1_GETX         3443      0.00%      0.00%
system.ruby.L2Cache_Controller.M.L2_Replacement            6      0.00%      0.00%
system.ruby.L2Cache_Controller.I_L.Persistent_GETX          326      0.00%      0.00%
system.ruby.L2Cache_Controller.I_L.Persistent_GETS          829      0.00%      0.00%

---------- End Simulation Statistics   ----------
