
---------- Begin Simulation Statistics ----------
sim_seconds                                  0.001590                       # Number of seconds simulated
sim_ticks                                  1589647500                       # Number of ticks simulated
final_tick                                 1589647500                       # Number of ticks from beginning of simulation (restored from checkpoints and never reset)
sim_freq                                 1000000000000                       # Frequency of simulated ticks
host_inst_rate                                  41460                       # Simulator instruction rate (inst/s)
host_op_rate                                    82363                       # Simulator op (including micro ops) rate (op/s)
host_tick_rate                               16874151                       # Simulator tick rate (ticks/s)
host_mem_usage                                 847584                       # Number of bytes of host memory used
host_seconds                                    94.21                       # Real time elapsed on the host
sim_insts                                     3905737                       # Number of instructions simulated
sim_ops                                       7759112                       # Number of ops (including micro ops) simulated
system.voltage_domain.voltage                       1                       # Voltage in Volts
system.clk_domain.clock                          1000                       # Clock period in ticks
system.mem_ctrls.pwrStateResidencyTicks::UNDEFINED   1589647500                       # Cumulative time (in ticks) in various power states
system.mem_ctrls.bytes_read::ruby.dir_cntrl0       906496                       # Number of bytes read from this memory
system.mem_ctrls.bytes_read::total             906496                       # Number of bytes read from this memory
system.mem_ctrls.num_reads::ruby.dir_cntrl0        14164                       # Number of read requests responded to by this memory
system.mem_ctrls.num_reads::total               14164                       # Number of read requests responded to by this memory
system.mem_ctrls.bw_read::ruby.dir_cntrl0    570249694                       # Total read bandwidth from this memory (bytes/s)
system.mem_ctrls.bw_read::total             570249694                       # Total read bandwidth from this memory (bytes/s)
system.mem_ctrls.bw_total::ruby.dir_cntrl0    570249694                       # Total bandwidth to/from this memory (bytes/s)
system.mem_ctrls.bw_total::total            570249694                       # Total bandwidth to/from this memory (bytes/s)
system.mem_ctrls.readReqs                       14164                       # Number of read requests accepted
system.mem_ctrls.avgNetLat                       0.00                       # Average network latency to DRAM controller
system.mem_ctrls.writeReqs                          0                       # Number of write requests accepted
system.mem_ctrls.readBursts                     14164                       # Number of DRAM read bursts, including those serviced by the write queue
system.mem_ctrls.writeBursts                        0                       # Number of DRAM write bursts, including those merged in the write queue
system.mem_ctrls.bytesReadDRAM                 906496                       # Total number of bytes read from DRAM
system.mem_ctrls.bytesReadWrQ                       0                       # Total number of bytes read from write queue
system.mem_ctrls.bytesWritten                       0                       # Total number of bytes written to DRAM
system.mem_ctrls.bytesReadSys                  906496                       # Total read bytes from the system interface side
system.mem_ctrls.bytesWrittenSys                    0                       # Total written bytes from the system interface side
system.mem_ctrls.servicedByWrQ                      0                       # Number of DRAM read bursts serviced by the write queue
system.mem_ctrls.mergedWrBursts                     0                       # Number of DRAM write bursts merged with an existing one
system.mem_ctrls.neitherReadNorWriteReqs            0                       # Number of requests that are neither read nor write
system.mem_ctrls.perBankRdBursts::0               850                       # Per bank write bursts
system.mem_ctrls.perBankRdBursts::1               719                       # Per bank write bursts
system.mem_ctrls.perBankRdBursts::2               792                       # Per bank write bursts
system.mem_ctrls.perBankRdBursts::3               797                       # Per bank write bursts
system.mem_ctrls.perBankRdBursts::4               864                       # Per bank write bursts
system.mem_ctrls.perBankRdBursts::5               963                       # Per bank write bursts
system.mem_ctrls.perBankRdBursts::6              1055                       # Per bank write bursts
system.mem_ctrls.perBankRdBursts::7               988                       # Per bank write bursts
system.mem_ctrls.perBankRdBursts::8               789                       # Per bank write bursts
system.mem_ctrls.perBankRdBursts::9               846                       # Per bank write bursts
system.mem_ctrls.perBankRdBursts::10              836                       # Per bank write bursts
system.mem_ctrls.perBankRdBursts::11              806                       # Per bank write bursts
system.mem_ctrls.perBankRdBursts::12              869                       # Per bank write bursts
system.mem_ctrls.perBankRdBursts::13              979                       # Per bank write bursts
system.mem_ctrls.perBankRdBursts::14             1020                       # Per bank write bursts
system.mem_ctrls.perBankRdBursts::15              991                       # Per bank write bursts
system.mem_ctrls.perBankWrBursts::0                 0                       # Per bank write bursts
system.mem_ctrls.perBankWrBursts::1                 0                       # Per bank write bursts
system.mem_ctrls.perBankWrBursts::2                 0                       # Per bank write bursts
system.mem_ctrls.perBankWrBursts::3                 0                       # Per bank write bursts
system.mem_ctrls.perBankWrBursts::4                 0                       # Per bank write bursts
system.mem_ctrls.perBankWrBursts::5                 0                       # Per bank write bursts
system.mem_ctrls.perBankWrBursts::6                 0                       # Per bank write bursts
system.mem_ctrls.perBankWrBursts::7                 0                       # Per bank write bursts
system.mem_ctrls.perBankWrBursts::8                 0                       # Per bank write bursts
system.mem_ctrls.perBankWrBursts::9                 0                       # Per bank write bursts
system.mem_ctrls.perBankWrBursts::10                0                       # Per bank write bursts
system.mem_ctrls.perBankWrBursts::11                0                       # Per bank write bursts
system.mem_ctrls.perBankWrBursts::12                0                       # Per bank write bursts
system.mem_ctrls.perBankWrBursts::13                0                       # Per bank write bursts
system.mem_ctrls.perBankWrBursts::14                0                       # Per bank write bursts
system.mem_ctrls.perBankWrBursts::15                0                       # Per bank write bursts
system.mem_ctrls.numRdRetry                         0                       # Number of times read queue was full causing retry
system.mem_ctrls.numWrRetry                         0                       # Number of times write queue was full causing retry
system.mem_ctrls.totGap                    1589582000                       # Total gap between requests
system.mem_ctrls.readPktSize::0                     0                       # Read request sizes (log2)
system.mem_ctrls.readPktSize::1                     0                       # Read request sizes (log2)
system.mem_ctrls.readPktSize::2                     0                       # Read request sizes (log2)
system.mem_ctrls.readPktSize::3                     0                       # Read request sizes (log2)
system.mem_ctrls.readPktSize::4                     0                       # Read request sizes (log2)
system.mem_ctrls.readPktSize::5                     0                       # Read request sizes (log2)
system.mem_ctrls.readPktSize::6                 14164                       # Read request sizes (log2)
system.mem_ctrls.writePktSize::0                    0                       # Write request sizes (log2)
system.mem_ctrls.writePktSize::1                    0                       # Write request sizes (log2)
system.mem_ctrls.writePktSize::2                    0                       # Write request sizes (log2)
system.mem_ctrls.writePktSize::3                    0                       # Write request sizes (log2)
system.mem_ctrls.writePktSize::4                    0                       # Write request sizes (log2)
system.mem_ctrls.writePktSize::5                    0                       # Write request sizes (log2)
system.mem_ctrls.writePktSize::6                    0                       # Write request sizes (log2)
system.mem_ctrls.rdQLenPdf::0                    1979                       # What read queue length does an incoming req see
system.mem_ctrls.rdQLenPdf::1                    2738                       # What read queue length does an incoming req see
system.mem_ctrls.rdQLenPdf::2                    2415                       # What read queue length does an incoming req see
system.mem_ctrls.rdQLenPdf::3                    1867                       # What read queue length does an incoming req see
system.mem_ctrls.rdQLenPdf::4                    1343                       # What read queue length does an incoming req see
system.mem_ctrls.rdQLenPdf::5                    1004                       # What read queue length does an incoming req see
system.mem_ctrls.rdQLenPdf::6                     865                       # What read queue length does an incoming req see
system.mem_ctrls.rdQLenPdf::7                     639                       # What read queue length does an incoming req see
system.mem_ctrls.rdQLenPdf::8                     508                       # What read queue length does an incoming req see
system.mem_ctrls.rdQLenPdf::9                     353                       # What read queue length does an incoming req see
system.mem_ctrls.rdQLenPdf::10                    216                       # What read queue length does an incoming req see
system.mem_ctrls.rdQLenPdf::11                    126                       # What read queue length does an incoming req see
system.mem_ctrls.rdQLenPdf::12                     65                       # What read queue length does an incoming req see
system.mem_ctrls.rdQLenPdf::13                     23                       # What read queue length does an incoming req see
system.mem_ctrls.rdQLenPdf::14                     13                       # What read queue length does an incoming req see
system.mem_ctrls.rdQLenPdf::15                      7                       # What read queue length does an incoming req see
system.mem_ctrls.rdQLenPdf::16                      2                       # What read queue length does an incoming req see
system.mem_ctrls.rdQLenPdf::17                      1                       # What read queue length does an incoming req see
system.mem_ctrls.rdQLenPdf::18                      0                       # What read queue length does an incoming req see
system.mem_ctrls.rdQLenPdf::19                      0                       # What read queue length does an incoming req see
system.mem_ctrls.rdQLenPdf::20                      0                       # What read queue length does an incoming req see
system.mem_ctrls.rdQLenPdf::21                      0                       # What read queue length does an incoming req see
system.mem_ctrls.rdQLenPdf::22                      0                       # What read queue length does an incoming req see
system.mem_ctrls.rdQLenPdf::23                      0                       # What read queue length does an incoming req see
system.mem_ctrls.rdQLenPdf::24                      0                       # What read queue length does an incoming req see
system.mem_ctrls.rdQLenPdf::25                      0                       # What read queue length does an incoming req see
system.mem_ctrls.rdQLenPdf::26                      0                       # What read queue length does an incoming req see
system.mem_ctrls.rdQLenPdf::27                      0                       # What read queue length does an incoming req see
system.mem_ctrls.rdQLenPdf::28                      0                       # What read queue length does an incoming req see
system.mem_ctrls.rdQLenPdf::29                      0                       # What read queue length does an incoming req see
system.mem_ctrls.rdQLenPdf::30                      0                       # What read queue length does an incoming req see
system.mem_ctrls.rdQLenPdf::31                      0                       # What read queue length does an incoming req see
system.mem_ctrls.wrQLenPdf::0                       0                       # What write queue length does an incoming req see
system.mem_ctrls.wrQLenPdf::1                       0                       # What write queue length does an incoming req see
system.mem_ctrls.wrQLenPdf::2                       0                       # What write queue length does an incoming req see
system.mem_ctrls.wrQLenPdf::3                       0                       # What write queue length does an incoming req see
system.mem_ctrls.wrQLenPdf::4                       0                       # What write queue length does an incoming req see
system.mem_ctrls.wrQLenPdf::5                       0                       # What write queue length does an incoming req see
system.mem_ctrls.wrQLenPdf::6                       0                       # What write queue length does an incoming req see
system.mem_ctrls.wrQLenPdf::7                       0                       # What write queue length does an incoming req see
system.mem_ctrls.wrQLenPdf::8                       0                       # What write queue length does an incoming req see
system.mem_ctrls.wrQLenPdf::9                       0                       # What write queue length does an incoming req see
system.mem_ctrls.wrQLenPdf::10                      0                       # What write queue length does an incoming req see
system.mem_ctrls.wrQLenPdf::11                      0                       # What write queue length does an incoming req see
system.mem_ctrls.wrQLenPdf::12                      0                       # What write queue length does an incoming req see
system.mem_ctrls.wrQLenPdf::13                      0                       # What write queue length does an incoming req see
system.mem_ctrls.wrQLenPdf::14                      0                       # What write queue length does an incoming req see
system.mem_ctrls.wrQLenPdf::15                      0                       # What write queue length does an incoming req see
system.mem_ctrls.wrQLenPdf::16                      0                       # What write queue length does an incoming req see
system.mem_ctrls.wrQLenPdf::17                      0                       # What write queue length does an incoming req see
system.mem_ctrls.wrQLenPdf::18                      0                       # What write queue length does an incoming req see
system.mem_ctrls.wrQLenPdf::19                      0                       # What write queue length does an incoming req see
system.mem_ctrls.wrQLenPdf::20                      0                       # What write queue length does an incoming req see
system.mem_ctrls.wrQLenPdf::21                      0                       # What write queue length does an incoming req see
system.mem_ctrls.wrQLenPdf::22                      0                       # What write queue length does an incoming req see
system.mem_ctrls.wrQLenPdf::23                      0                       # What write queue length does an incoming req see
system.mem_ctrls.wrQLenPdf::24                      0                       # What write queue length does an incoming req see
system.mem_ctrls.wrQLenPdf::25                      0                       # What write queue length does an incoming req see
system.mem_ctrls.wrQLenPdf::26                      0                       # What write queue length does an incoming req see
system.mem_ctrls.wrQLenPdf::27                      0                       # What write queue length does an incoming req see
system.mem_ctrls.wrQLenPdf::28                      0                       # What write queue length does an incoming req see
system.mem_ctrls.wrQLenPdf::29                      0                       # What write queue length does an incoming req see
system.mem_ctrls.wrQLenPdf::30                      0                       # What write queue length does an incoming req see
system.mem_ctrls.wrQLenPdf::31                      0                       # What write queue length does an incoming req see
system.mem_ctrls.wrQLenPdf::32                      0                       # What write queue length does an incoming req see
system.mem_ctrls.wrQLenPdf::33                      0                       # What write queue length does an incoming req see
system.mem_ctrls.wrQLenPdf::34                      0                       # What write queue length does an incoming req see
system.mem_ctrls.wrQLenPdf::35                      0                       # What write queue length does an incoming req see
system.mem_ctrls.wrQLenPdf::36                      0                       # What write queue length does an incoming req see
system.mem_ctrls.wrQLenPdf::37                      0                       # What write queue length does an incoming req see
system.mem_ctrls.wrQLenPdf::38                      0                       # What write queue length does an incoming req see
system.mem_ctrls.wrQLenPdf::39                      0                       # What write queue length does an incoming req see
system.mem_ctrls.wrQLenPdf::40                      0                       # What write queue length does an incoming req see
system.mem_ctrls.wrQLenPdf::41                      0                       # What write queue length does an incoming req see
system.mem_ctrls.wrQLenPdf::42                      0                       # What write queue length does an incoming req see
system.mem_ctrls.wrQLenPdf::43                      0                       # What write queue length does an incoming req see
system.mem_ctrls.wrQLenPdf::44                      0                       # What write queue length does an incoming req see
system.mem_ctrls.wrQLenPdf::45                      0                       # What write queue length does an incoming req see
system.mem_ctrls.wrQLenPdf::46                      0                       # What write queue length does an incoming req see
system.mem_ctrls.wrQLenPdf::47                      0                       # What write queue length does an incoming req see
system.mem_ctrls.wrQLenPdf::48                      0                       # What write queue length does an incoming req see
system.mem_ctrls.wrQLenPdf::49                      0                       # What write queue length does an incoming req see
system.mem_ctrls.wrQLenPdf::50                      0                       # What write queue length does an incoming req see
system.mem_ctrls.wrQLenPdf::51                      0                       # What write queue length does an incoming req see
system.mem_ctrls.wrQLenPdf::52                      0                       # What write queue length does an incoming req see
system.mem_ctrls.wrQLenPdf::53                      0                       # What write queue length does an incoming req see
system.mem_ctrls.wrQLenPdf::54                      0                       # What write queue length does an incoming req see
system.mem_ctrls.wrQLenPdf::55                      0                       # What write queue length does an incoming req see
system.mem_ctrls.wrQLenPdf::56                      0                       # What write queue length does an incoming req see
system.mem_ctrls.wrQLenPdf::57                      0                       # What write queue length does an incoming req see
system.mem_ctrls.wrQLenPdf::58                      0                       # What write queue length does an incoming req see
system.mem_ctrls.wrQLenPdf::59                      0                       # What write queue length does an incoming req see
system.mem_ctrls.wrQLenPdf::60                      0                       # What write queue length does an incoming req see
system.mem_ctrls.wrQLenPdf::61                      0                       # What write queue length does an incoming req see
system.mem_ctrls.wrQLenPdf::62                      0                       # What write queue length does an incoming req see
system.mem_ctrls.wrQLenPdf::63                      0                       # What write queue length does an incoming req see
system.mem_ctrls.bytesPerActivate::samples         4896                       # Bytes accessed per row activation
system.mem_ctrls.bytesPerActivate::mean    184.810458                       # Bytes accessed per row activation
system.mem_ctrls.bytesPerActivate::gmean   115.471266                       # Bytes accessed per row activation
system.mem_ctrls.bytesPerActivate::stdev   244.275268                       # Bytes accessed per row activation
system.mem_ctrls.bytesPerActivate::0-127         2794     57.07%     57.07% # Bytes accessed per row activation
system.mem_ctrls.bytesPerActivate::128-255         1205     24.61%     81.68% # Bytes accessed per row activation
system.mem_ctrls.bytesPerActivate::256-383          291      5.94%     87.62% # Bytes accessed per row activation
system.mem_ctrls.bytesPerActivate::384-511          133      2.72%     90.34% # Bytes accessed per row activation
system.mem_ctrls.bytesPerActivate::512-639           88      1.80%     92.14% # Bytes accessed per row activation
system.mem_ctrls.bytesPerActivate::640-767           60      1.23%     93.36% # Bytes accessed per row activation
system.mem_ctrls.bytesPerActivate::768-895           33      0.67%     94.04% # Bytes accessed per row activation
system.mem_ctrls.bytesPerActivate::896-1023           31      0.63%     94.67% # Bytes accessed per row activation
system.mem_ctrls.bytesPerActivate::1024-1151          261      5.33%    100.00% # Bytes accessed per row activation
system.mem_ctrls.bytesPerActivate::total         4896                       # Bytes accessed per row activation
system.mem_ctrls.totQLat                    451779553                       # Total ticks spent queuing
system.mem_ctrls.totMemAccLat               717354553                       # Total ticks spent from burst creation until serviced by the DRAM
system.mem_ctrls.totBusLat                   70820000                       # Total ticks spent in databus transfers
system.mem_ctrls.avgQLat                     31896.33                       # Average queueing delay per DRAM burst
system.mem_ctrls.avgBusLat                    5000.00                       # Average bus latency per DRAM burst
system.mem_ctrls.avgMemAccLat                50646.33                       # Average memory access latency per DRAM burst
system.mem_ctrls.avgRdBW                       570.25                       # Average DRAM read bandwidth in MiByte/s
system.mem_ctrls.avgWrBW                         0.00                       # Average achieved write bandwidth in MiByte/s
system.mem_ctrls.avgRdBWSys                    570.25                       # Average system read bandwidth in MiByte/s
system.mem_ctrls.avgWrBWSys                      0.00                       # Average system write bandwidth in MiByte/s
system.mem_ctrls.peakBW                      12800.00                       # Theoretical peak bandwidth in MiByte/s
system.mem_ctrls.busUtil                         4.46                       # Data bus utilization in percentage
system.mem_ctrls.busUtilRead                     4.46                       # Data bus utilization in percentage for reads
system.mem_ctrls.busUtilWrite                    0.00                       # Data bus utilization in percentage for writes
system.mem_ctrls.avgRdQLen                       1.46                       # Average read queue length when enqueuing
system.mem_ctrls.avgWrQLen                       0.00                       # Average write queue length when enqueuing
system.mem_ctrls.readRowHits                     9259                       # Number of row buffer hits during reads
system.mem_ctrls.writeRowHits                       0                       # Number of row buffer hits during writes
system.mem_ctrls.readRowHitRate                 65.37                       # Row buffer hit rate for reads
system.mem_ctrls.writeRowHitRate                  nan                       # Row buffer hit rate for writes
system.mem_ctrls.avgGap                     112226.91                       # Average gap between requests
system.mem_ctrls.pageHitRate                    65.37                       # Row buffer hit rate, read and write combined
system.mem_ctrls_0.actEnergy                 18492600                       # Energy for activate commands per rank (pJ)
system.mem_ctrls_0.preEnergy                  9810075                       # Energy for precharge commands per rank (pJ)
system.mem_ctrls_0.readEnergy                50179920                       # Energy for read commands per rank (pJ)
system.mem_ctrls_0.writeEnergy                      0                       # Energy for write commands per rank (pJ)
system.mem_ctrls_0.refreshEnergy         26429520.000000                       # Energy for refresh commands per rank (pJ)
system.mem_ctrls_0.actBackEnergy             76722570                       # Energy for active background per rank (pJ)
system.mem_ctrls_0.preBackEnergy               908160                       # Energy for precharge background per rank (pJ)
system.mem_ctrls_0.actPowerDownEnergy        47668530                       # Energy for active power-down per rank (pJ)
system.mem_ctrls_0.prePowerDownEnergy        13440480                       # Energy for precharge power-down per rank (pJ)
system.mem_ctrls_0.selfRefreshEnergy        309287460                       # Energy for self refresh per rank (pJ)
system.mem_ctrls_0.totalEnergy              552939315                       # Total energy per rank (pJ)
system.mem_ctrls_0.averagePower            347.837690                       # Core power per rank (mW)
system.mem_ctrls_0.totalIdleTime           1418810283                       # Total Idle time Per DRAM Rank
system.mem_ctrls_0.memoryStateTime::IDLE      1254250                       # Time in different power states
system.mem_ctrls_0.memoryStateTime::REF      11204000                       # Time in different power states
system.mem_ctrls_0.memoryStateTime::SREF   1279491750                       # Time in different power states
system.mem_ctrls_0.memoryStateTime::PRE_PDN     34997750                       # Time in different power states
system.mem_ctrls_0.memoryStateTime::ACT     158227717                       # Time in different power states
system.mem_ctrls_0.memoryStateTime::ACT_PDN    104472033                       # Time in different power states
system.mem_ctrls_1.actEnergy                 16529100                       # Energy for activate commands per rank (pJ)
system.mem_ctrls_1.preEnergy                  8770245                       # Energy for precharge commands per rank (pJ)
system.mem_ctrls_1.readEnergy                50951040                       # Energy for read commands per rank (pJ)
system.mem_ctrls_1.writeEnergy                      0                       # Energy for write commands per rank (pJ)
system.mem_ctrls_1.refreshEnergy         26429520.000000                       # Energy for refresh commands per rank (pJ)
system.mem_ctrls_1.actBackEnergy             76415340                       # Energy for active background per rank (pJ)
system.mem_ctrls_1.preBackEnergy               900480                       # Energy for precharge background per rank (pJ)
system.mem_ctrls_1.actPowerDownEnergy        49423560                       # Energy for active power-down per rank (pJ)
system.mem_ctrls_1.prePowerDownEnergy        11850240                       # Energy for precharge power-down per rank (pJ)
system.mem_ctrls_1.selfRefreshEnergy        309524160                       # Energy for self refresh per rank (pJ)
system.mem_ctrls_1.totalEnergy              550793685                       # Total energy per rank (pJ)
system.mem_ctrls_1.averagePower            346.487938                       # Core power per rank (mW)
system.mem_ctrls_1.totalIdleTime           1419682544                       # Total Idle time Per DRAM Rank
system.mem_ctrls_1.memoryStateTime::IDLE      1191251                       # Time in different power states
system.mem_ctrls_1.memoryStateTime::REF      11204000                       # Time in different power states
system.mem_ctrls_1.memoryStateTime::SREF   1280480750                       # Time in different power states
system.mem_ctrls_1.memoryStateTime::PRE_PDN     30860500                       # Time in different power states
system.mem_ctrls_1.memoryStateTime::ACT     157539455                       # Time in different power states
system.mem_ctrls_1.memoryStateTime::ACT_PDN    108371544                       # Time in different power states
system.pwrStateResidencyTicks::UNDEFINED   1589647500                       # Cumulative time (in ticks) in various power states
system.cpu0.branchPred.lookups                 488035                       # Number of BP lookups
system.cpu0.branchPred.condPredicted           488035                       # Number of conditional branches predicted
system.cpu0.branchPred.condIncorrect             8531                       # Number of conditional branches incorrect
system.cpu0.branchPred.BTBLookups              436877                       # Number of BTB lookups
system.cpu0.branchPred.BTBHits                      0                       # Number of BTB hits
system.cpu0.branchPred.BTBCorrect                   0                       # Number of correct BTB predictions (this stat may not work properly.
system.cpu0.branchPred.BTBHitPct             0.000000                       # BTB Hit Percentage
system.cpu0.branchPred.usedRAS                  28669                       # Number of times the RAS was used to get a target.
system.cpu0.branchPred.RASInCorrect               447                       # Number of incorrect RAS predictions.
system.cpu0.branchPred.indirectLookups         436877                       # Number of indirect predictor lookups.
system.cpu0.branchPred.indirectHits            236189                       # Number of indirect target hits.
system.cpu0.branchPred.indirectMisses          200688                       # Number of indirect misses.
system.cpu0.branchPredindirectMispredicted         4557                       # Number of mispredicted indirect branches.
system.cpu_voltage_domain.voltage                   1                       # Voltage in Volts
system.cpu0.clk_domain.clock                      500                       # Clock period in ticks
system.cpu0.dtb.walker.pwrStateResidencyTicks::UNDEFINED   1589647500                       # Cumulative time (in ticks) in various power states
system.cpu0.apic_clk_domain.clock                8000                       # Clock period in ticks
system.cpu0.interrupts.pwrStateResidencyTicks::UNDEFINED   1589647500                       # Cumulative time (in ticks) in various power states
system.cpu0.itb.walker.pwrStateResidencyTicks::UNDEFINED   1589647500                       # Cumulative time (in ticks) in various power states
system.cpu0.workload.num_syscalls               26440                       # Number of system calls
system.cpu0.pwrStateResidencyTicks::ON     1589647500                       # Cumulative time (in ticks) in various power states
system.cpu0.numCycles                         3179296                       # number of cpu cycles simulated
system.cpu0.numWorkItemsStarted                     0                       # number of work items this cpu started
system.cpu0.numWorkItemsCompleted                   0                       # number of work items this cpu completed
system.cpu0.fetch.icacheStallCycles            262576                       # Number of cycles fetch is stalled on an Icache miss
system.cpu0.fetch.Insts                       1529989                       # Number of instructions fetch has processed
system.cpu0.fetch.Branches                     488035                       # Number of branches that fetch encountered
system.cpu0.fetch.predictedBranches            264858                       # Number of branches that fetch has predicted taken
system.cpu0.fetch.Cycles                      2801709                       # Number of cycles fetch has run and was not squashing or blocked
system.cpu0.fetch.SquashCycles                  17323                       # Number of cycles fetch has spent squashing
system.cpu0.fetch.MiscStallCycles               13239                       # Number of cycles fetch has spent waiting on interrupts, or bad addresses, or out of MSHRs
system.cpu0.fetch.PendingTrapStallCycles          596                       # Number of stall cycles due to pending traps
system.cpu0.fetch.PendingQuiesceStallCycles           13                       # Number of stall cycles due to pending quiesce instructions
system.cpu0.fetch.IcacheWaitRetryStallCycles         7362                       # Number of stall cycles due to full MSHR
system.cpu0.fetch.CacheLines                   234014                       # Number of cache lines fetched
system.cpu0.fetch.IcacheSquashes                 2592                       # Number of outstanding Icache misses that were squashed
system.cpu0.fetch.rateDist::samples           3094156                       # Number of instructions fetched each cycle (Total)
system.cpu0.fetch.rateDist::mean             0.974660                       # Number of instructions fetched each cycle (Total)
system.cpu0.fetch.rateDist::stdev            2.363299                       # Number of instructions fetched each cycle (Total)
system.cpu0.fetch.rateDist::underflows              0      0.00%      0.00% # Number of instructions fetched each cycle (Total)
system.cpu0.fetch.rateDist::0                 2562797     82.83%     82.83% # Number of instructions fetched each cycle (Total)
system.cpu0.fetch.rateDist::1                   34683      1.12%     83.95% # Number of instructions fetched each cycle (Total)
system.cpu0.fetch.rateDist::2                   30117      0.97%     84.92% # Number of instructions fetched each cycle (Total)
system.cpu0.fetch.rateDist::3                   47813      1.55%     86.47% # Number of instructions fetched each cycle (Total)
system.cpu0.fetch.rateDist::4                  109174      3.53%     89.99% # Number of instructions fetched each cycle (Total)
system.cpu0.fetch.rateDist::5                    8027      0.26%     90.25% # Number of instructions fetched each cycle (Total)
system.cpu0.fetch.rateDist::6                   32958      1.07%     91.32% # Number of instructions fetched each cycle (Total)
system.cpu0.fetch.rateDist::7                   45882      1.48%     92.80% # Number of instructions fetched each cycle (Total)
system.cpu0.fetch.rateDist::8                  222705      7.20%    100.00% # Number of instructions fetched each cycle (Total)
system.cpu0.fetch.rateDist::overflows               0      0.00%    100.00% # Number of instructions fetched each cycle (Total)
system.cpu0.fetch.rateDist::min_value               0                       # Number of instructions fetched each cycle (Total)
system.cpu0.fetch.rateDist::max_value               8                       # Number of instructions fetched each cycle (Total)
system.cpu0.fetch.rateDist::total             3094156                       # Number of instructions fetched each cycle (Total)
system.cpu0.fetch.branchRate                 0.153504                       # Number of branch fetches per cycle
system.cpu0.fetch.rate                       0.481235                       # Number of inst fetches per cycle
system.cpu0.decode.IdleCycles                  154688                       # Number of cycles decode is idle
system.cpu0.decode.BlockedCycles              2520909                       # Number of cycles decode is blocked
system.cpu0.decode.RunCycles                   220613                       # Number of cycles decode is running
system.cpu0.decode.UnblockCycles               189285                       # Number of cycles decode is unblocking
system.cpu0.decode.SquashCycles                  8661                       # Number of cycles decode is squashing
system.cpu0.decode.DecodedInsts               2929523                       # Number of instructions handled by decode
system.cpu0.rename.SquashCycles                  8661                       # Number of cycles rename is squashing
system.cpu0.rename.IdleCycles                  218671                       # Number of cycles rename is idle
system.cpu0.rename.BlockCycles                 421652                       # Number of cycles rename is blocking
system.cpu0.rename.serializeStallCycles       1803404                       # count of cycles rename stalled for serializing inst
system.cpu0.rename.RunCycles                   282892                       # Number of cycles rename is running
system.cpu0.rename.UnblockCycles               358876                       # Number of cycles rename is unblocking
system.cpu0.rename.RenamedInsts               2887734                       # Number of instructions processed by rename
system.cpu0.rename.ROBFullEvents               169339                       # Number of times rename has blocked due to ROB full
system.cpu0.rename.IQFullEvents                 16133                       # Number of times rename has blocked due to IQ full
system.cpu0.rename.LQFullEvents                 72244                       # Number of times rename has blocked due to LQ full
system.cpu0.rename.SQFullEvents                 31634                       # Number of times rename has blocked due to SQ full
system.cpu0.rename.RenamedOperands            3214470                       # Number of destination operands rename has renamed
system.cpu0.rename.RenameLookups              6772354                       # Number of register rename lookups that rename has made
system.cpu0.rename.int_rename_lookups         3481338                       # Number of integer rename lookups
system.cpu0.rename.fp_rename_lookups            18074                       # Number of floating rename lookups
system.cpu0.rename.CommittedMaps              2705982                       # Number of HB maps that are committed
system.cpu0.rename.UndoneMaps                  508488                       # Number of HB maps that are undone due to squashing
system.cpu0.rename.serializingInsts             26476                       # count of serializing insts renamed
system.cpu0.rename.tempSerializingInsts         26479                       # count of temporary serializing insts renamed
system.cpu0.rename.skidInsts                  1129877                       # count of insts added to the skid buffer
system.cpu0.memDep0.insertedLoads              398215                       # Number of loads inserted to the mem dependence unit.
system.cpu0.memDep0.insertedStores              48677                       # Number of stores inserted to the mem dependence unit.
system.cpu0.memDep0.conflictingLoads             2906                       # Number of conflicting loads.
system.cpu0.memDep0.conflictingStores             609                       # Number of conflicting stores.
system.cpu0.iq.iqInstsAdded                   2786543                       # Number of instructions added to the IQ (excludes non-spec)
system.cpu0.iq.iqNonSpecInstsAdded              26512                       # Number of non-speculative instructions added to the IQ
system.cpu0.iq.iqInstsIssued                  2809623                       # Number of instructions issued
system.cpu0.iq.iqSquashedInstsIssued             6789                       # Number of squashed instructions issued
system.cpu0.iq.iqSquashedInstsExamined         336794                       # Number of squashed instructions iterated over during squash; mainly for profiling
system.cpu0.iq.iqSquashedOperandsExamined       512512                       # Number of squashed operands that are examined and possibly removed from graph
system.cpu0.iq.iqSquashedNonSpecRemoved            72                       # Number of squashed non-spec instructions that were removed
system.cpu0.iq.issued_per_cycle::samples      3094156                       # Number of insts issued each cycle
system.cpu0.iq.issued_per_cycle::mean        0.908042                       # Number of insts issued each cycle
system.cpu0.iq.issued_per_cycle::stdev       1.717961                       # Number of insts issued each cycle
system.cpu0.iq.issued_per_cycle::underflows            0      0.00%      0.00% # Number of insts issued each cycle
system.cpu0.iq.issued_per_cycle::0            2096203     67.75%     67.75% # Number of insts issued each cycle
system.cpu0.iq.issued_per_cycle::1             360295     11.64%     79.39% # Number of insts issued each cycle
system.cpu0.iq.issued_per_cycle::2             151597      4.90%     84.29% # Number of insts issued each cycle
system.cpu0.iq.issued_per_cycle::3             209225      6.76%     91.05% # Number of insts issued each cycle
system.cpu0.iq.issued_per_cycle::4              77151      2.49%     93.55% # Number of insts issued each cycle
system.cpu0.iq.issued_per_cycle::5              90332      2.92%     96.47% # Number of insts issued each cycle
system.cpu0.iq.issued_per_cycle::6              45865      1.48%     97.95% # Number of insts issued each cycle
system.cpu0.iq.issued_per_cycle::7              24899      0.80%     98.75% # Number of insts issued each cycle
system.cpu0.iq.issued_per_cycle::8              38589      1.25%    100.00% # Number of insts issued each cycle
system.cpu0.iq.issued_per_cycle::overflows            0      0.00%    100.00% # Number of insts issued each cycle
system.cpu0.iq.issued_per_cycle::min_value            0                       # Number of insts issued each cycle
system.cpu0.iq.issued_per_cycle::max_value            8                       # Number of insts issued each cycle
system.cpu0.iq.issued_per_cycle::total        3094156                       # Number of insts issued each cycle
system.cpu0.iq.fu_full::No_OpClass                  0      0.00%      0.00% # attempts to use FU when none available
system.cpu0.iq.fu_full::IntAlu                   5807     25.16%     25.16% # attempts to use FU when none available
system.cpu0.iq.fu_full::IntMult                     0      0.00%     25.16% # attempts to use FU when none available
system.cpu0.iq.fu_full::IntDiv                      0      0.00%     25.16% # attempts to use FU when none available
system.cpu0.iq.fu_full::FloatAdd                   52      0.23%     25.38% # attempts to use FU when none available
system.cpu0.iq.fu_full::FloatCmp                    0      0.00%     25.38% # attempts to use FU when none available
system.cpu0.iq.fu_full::FloatCvt                    0      0.00%     25.38% # attempts to use FU when none available
system.cpu0.iq.fu_full::FloatMult                   0      0.00%     25.38% # attempts to use FU when none available
system.cpu0.iq.fu_full::FloatMultAcc                0      0.00%     25.38% # attempts to use FU when none available
system.cpu0.iq.fu_full::FloatDiv                    0      0.00%     25.38% # attempts to use FU when none available
system.cpu0.iq.fu_full::FloatMisc                   0      0.00%     25.38% # attempts to use FU when none available
system.cpu0.iq.fu_full::FloatSqrt                   0      0.00%     25.38% # attempts to use FU when none available
system.cpu0.iq.fu_full::SimdAdd                     0      0.00%     25.38% # attempts to use FU when none available
system.cpu0.iq.fu_full::SimdAddAcc                  0      0.00%     25.38% # attempts to use FU when none available
system.cpu0.iq.fu_full::SimdAlu                     0      0.00%     25.38% # attempts to use FU when none available
system.cpu0.iq.fu_full::SimdCmp                     0      0.00%     25.38% # attempts to use FU when none available
system.cpu0.iq.fu_full::SimdCvt                     0      0.00%     25.38% # attempts to use FU when none available
system.cpu0.iq.fu_full::SimdMisc                    0      0.00%     25.38% # attempts to use FU when none available
system.cpu0.iq.fu_full::SimdMult                    0      0.00%     25.38% # attempts to use FU when none available
system.cpu0.iq.fu_full::SimdMultAcc                 0      0.00%     25.38% # attempts to use FU when none available
system.cpu0.iq.fu_full::SimdShift                   0      0.00%     25.38% # attempts to use FU when none available
system.cpu0.iq.fu_full::SimdShiftAcc                0      0.00%     25.38% # attempts to use FU when none available
system.cpu0.iq.fu_full::SimdSqrt                    0      0.00%     25.38% # attempts to use FU when none available
system.cpu0.iq.fu_full::SimdFloatAdd                0      0.00%     25.38% # attempts to use FU when none available
system.cpu0.iq.fu_full::SimdFloatAlu                0      0.00%     25.38% # attempts to use FU when none available
system.cpu0.iq.fu_full::SimdFloatCmp                0      0.00%     25.38% # attempts to use FU when none available
system.cpu0.iq.fu_full::SimdFloatCvt                0      0.00%     25.38% # attempts to use FU when none available
system.cpu0.iq.fu_full::SimdFloatDiv                0      0.00%     25.38% # attempts to use FU when none available
system.cpu0.iq.fu_full::SimdFloatMisc               0      0.00%     25.38% # attempts to use FU when none available
system.cpu0.iq.fu_full::SimdFloatMult               0      0.00%     25.38% # attempts to use FU when none available
system.cpu0.iq.fu_full::SimdFloatMultAcc            0      0.00%     25.38% # attempts to use FU when none available
system.cpu0.iq.fu_full::SimdFloatSqrt               0      0.00%     25.38% # attempts to use FU when none available
system.cpu0.iq.fu_full::MemRead                 16330     70.74%     96.12% # attempts to use FU when none available
system.cpu0.iq.fu_full::MemWrite                  751      3.25%     99.38% # attempts to use FU when none available
system.cpu0.iq.fu_full::FloatMemRead              100      0.43%     99.81% # attempts to use FU when none available
system.cpu0.iq.fu_full::FloatMemWrite              44      0.19%    100.00% # attempts to use FU when none available
system.cpu0.iq.fu_full::IprAccess                   0      0.00%    100.00% # attempts to use FU when none available
system.cpu0.iq.fu_full::InstPrefetch                0      0.00%    100.00% # attempts to use FU when none available
system.cpu0.iq.FU_type_0::No_OpClass             4468      0.16%      0.16% # Type of FU issued
system.cpu0.iq.FU_type_0::IntAlu              2242771     79.82%     79.98% # Type of FU issued
system.cpu0.iq.FU_type_0::IntMult               13583      0.48%     80.47% # Type of FU issued
system.cpu0.iq.FU_type_0::IntDiv                 3023      0.11%     80.57% # Type of FU issued
system.cpu0.iq.FU_type_0::FloatAdd               4241      0.15%     80.73% # Type of FU issued
system.cpu0.iq.FU_type_0::FloatCmp                  0      0.00%     80.73% # Type of FU issued
system.cpu0.iq.FU_type_0::FloatCvt                  0      0.00%     80.73% # Type of FU issued
system.cpu0.iq.FU_type_0::FloatMult                 0      0.00%     80.73% # Type of FU issued
system.cpu0.iq.FU_type_0::FloatMultAcc              0      0.00%     80.73% # Type of FU issued
system.cpu0.iq.FU_type_0::FloatDiv                  0      0.00%     80.73% # Type of FU issued
system.cpu0.iq.FU_type_0::FloatMisc                 0      0.00%     80.73% # Type of FU issued
system.cpu0.iq.FU_type_0::FloatSqrt                 0      0.00%     80.73% # Type of FU issued
system.cpu0.iq.FU_type_0::SimdAdd                   0      0.00%     80.73% # Type of FU issued
system.cpu0.iq.FU_type_0::SimdAddAcc                0      0.00%     80.73% # Type of FU issued
system.cpu0.iq.FU_type_0::SimdAlu                   0      0.00%     80.73% # Type of FU issued
system.cpu0.iq.FU_type_0::SimdCmp                   0      0.00%     80.73% # Type of FU issued
system.cpu0.iq.FU_type_0::SimdCvt                   0      0.00%     80.73% # Type of FU issued
system.cpu0.iq.FU_type_0::SimdMisc                  0      0.00%     80.73% # Type of FU issued
system.cpu0.iq.FU_type_0::SimdMult                  0      0.00%     80.73% # Type of FU issued
system.cpu0.iq.FU_type_0::SimdMultAcc               0      0.00%     80.73% # Type of FU issued
system.cpu0.iq.FU_type_0::SimdShift                 0      0.00%     80.73% # Type of FU issued
system.cpu0.iq.FU_type_0::SimdShiftAcc              0      0.00%     80.73% # Type of FU issued
system.cpu0.iq.FU_type_0::SimdSqrt                  0      0.00%     80.73% # Type of FU issued
system.cpu0.iq.FU_type_0::SimdFloatAdd              0      0.00%     80.73% # Type of FU issued
system.cpu0.iq.FU_type_0::SimdFloatAlu              0      0.00%     80.73% # Type of FU issued
system.cpu0.iq.FU_type_0::SimdFloatCmp              0      0.00%     80.73% # Type of FU issued
system.cpu0.iq.FU_type_0::SimdFloatCvt              0      0.00%     80.73% # Type of FU issued
system.cpu0.iq.FU_type_0::SimdFloatDiv              0      0.00%     80.73% # Type of FU issued
system.cpu0.iq.FU_type_0::SimdFloatMisc             0      0.00%     80.73% # Type of FU issued
system.cpu0.iq.FU_type_0::SimdFloatMult             0      0.00%     80.73% # Type of FU issued
system.cpu0.iq.FU_type_0::SimdFloatMultAcc            0      0.00%     80.73% # Type of FU issued
system.cpu0.iq.FU_type_0::SimdFloatSqrt             0      0.00%     80.73% # Type of FU issued
system.cpu0.iq.FU_type_0::MemRead              493870     17.58%     98.30% # Type of FU issued
system.cpu0.iq.FU_type_0::MemWrite              43562      1.55%     99.85% # Type of FU issued
system.cpu0.iq.FU_type_0::FloatMemRead           3673      0.13%     99.98% # Type of FU issued
system.cpu0.iq.FU_type_0::FloatMemWrite           432      0.02%    100.00% # Type of FU issued
system.cpu0.iq.FU_type_0::IprAccess                 0      0.00%    100.00% # Type of FU issued
system.cpu0.iq.FU_type_0::InstPrefetch              0      0.00%    100.00% # Type of FU issued
system.cpu0.iq.FU_type_0::total               2809623                       # Type of FU issued
system.cpu0.iq.rate                          0.883725                       # Inst issue rate
system.cpu0.iq.fu_busy_cnt                      23084                       # FU busy when requested
system.cpu0.iq.fu_busy_rate                  0.008216                       # FU busy rate (busy events/executed inst)
system.cpu0.iq.int_inst_queue_reads           8725869                       # Number of integer instruction queue reads
system.cpu0.iq.int_inst_queue_writes          3133891                       # Number of integer instruction queue writes
system.cpu0.iq.int_inst_queue_wakeup_accesses      2660764                       # Number of integer instruction queue wakeup accesses
system.cpu0.iq.fp_inst_queue_reads              17406                       # Number of floating instruction queue reads
system.cpu0.iq.fp_inst_queue_writes             16082                       # Number of floating instruction queue writes
system.cpu0.iq.fp_inst_queue_wakeup_accesses         6174                       # Number of floating instruction queue wakeup accesses
system.cpu0.iq.int_alu_accesses               2819562                       # Number of integer alu accesses
system.cpu0.iq.fp_alu_accesses                   8677                       # Number of floating point alu accesses
system.cpu0.iew.lsq.thread0.forwLoads            4004                       # Number of loads that had data forwarded from stores
system.cpu0.iew.lsq.thread0.invAddrLoads            0                       # Number of loads ignored due to an invalid address
system.cpu0.iew.lsq.thread0.squashedLoads        46653                       # Number of loads squashed
system.cpu0.iew.lsq.thread0.ignoredResponses           31                       # Number of memory responses ignored because the instruction is squashed
system.cpu0.iew.lsq.thread0.memOrderViolation          139                       # Number of memory ordering violations
system.cpu0.iew.lsq.thread0.squashedStores        10410                       # Number of stores squashed
system.cpu0.iew.lsq.thread0.invAddrSwpfs            0                       # Number of software prefetches ignored due to an invalid address
system.cpu0.iew.lsq.thread0.blockedLoads            0                       # Number of blocked loads due to partial load-store forwarding
system.cpu0.iew.lsq.thread0.rescheduledLoads            7                       # Number of loads that were rescheduled
system.cpu0.iew.lsq.thread0.cacheBlocked       112455                       # Number of times an access to memory failed due to the cache being blocked
system.cpu0.iew.iewIdleCycles                       0                       # Number of cycles IEW is idle
system.cpu0.iew.iewSquashCycles                  8661                       # Number of cycles IEW is squashing
system.cpu0.iew.iewBlockCycles                 115475                       # Number of cycles IEW is blocking
system.cpu0.iew.iewUnblockCycles                 5348                       # Number of cycles IEW is unblocking
system.cpu0.iew.iewDispatchedInsts            2813055                       # Number of instructions dispatched to IQ
system.cpu0.iew.iewDispSquashedInsts             2222                       # Number of squashed instructions skipped by dispatch
system.cpu0.iew.iewDispLoadInsts               398215                       # Number of dispatched load instructions
system.cpu0.iew.iewDispStoreInsts               48677                       # Number of dispatched store instructions
system.cpu0.iew.iewDispNonSpecInsts             26480                       # Number of dispatched non-speculative instructions
system.cpu0.iew.iewIQFullEvents                   536                       # Number of times the IQ has become full, causing a stall
system.cpu0.iew.iewLSQFullEvents                 4417                       # Number of times the LSQ has become full, causing a stall
system.cpu0.iew.memOrderViolationEvents           139                       # Number of memory order violations
system.cpu0.iew.predictedTakenIncorrect          1942                       # Number of branches that were predicted taken incorrectly
system.cpu0.iew.predictedNotTakenIncorrect         9035                       # Number of branches that were predicted not taken incorrectly
system.cpu0.iew.branchMispredicts               10977                       # Number of branch mispredicts detected at execute
system.cpu0.iew.iewExecutedInsts              2788740                       # Number of executed instructions
system.cpu0.iew.iewExecLoadInsts               491175                       # Number of load instructions executed
system.cpu0.iew.iewExecSquashedInsts            20883                       # Number of squashed instructions skipped in execute
system.cpu0.iew.exec_swp                            0                       # number of swp insts executed
system.cpu0.iew.exec_nop                            0                       # number of nop insts executed
system.cpu0.iew.exec_refs                      534156                       # number of memory reference insts executed
system.cpu0.iew.exec_branches                  436750                       # Number of branches executed
system.cpu0.iew.exec_stores                     42981                       # Number of stores executed
system.cpu0.iew.exec_rate                    0.877156                       # Inst execution rate
system.cpu0.iew.wb_sent                       2671858                       # cumulative count of insts sent to commit
system.cpu0.iew.wb_count                      2666938                       # cumulative count of insts written-back
system.cpu0.iew.wb_producers                  1875626                       # num instructions producing a value
system.cpu0.iew.wb_consumers                  2824658                       # num instructions consuming a value
system.cpu0.iew.wb_rate                      0.838845                       # insts written-back per cycle
system.cpu0.iew.wb_fanout                    0.664019                       # average fanout of values written-back
system.cpu0.commit.commitSquashedInsts         336818                       # The number of squashed insts skipped by commit
system.cpu0.commit.commitNonSpecStalls          26440                       # The number of times commit has been forced to stall to communicate backwards
system.cpu0.commit.branchMispredicts             8553                       # The number of times a branch was mispredicted
system.cpu0.commit.committed_per_cycle::samples      3043475                       # Number of insts commited each cycle
system.cpu0.commit.committed_per_cycle::mean     0.813629                       # Number of insts commited each cycle
system.cpu0.commit.committed_per_cycle::stdev     2.024989                       # Number of insts commited each cycle
system.cpu0.commit.committed_per_cycle::underflows            0      0.00%      0.00% # Number of insts commited each cycle
system.cpu0.commit.committed_per_cycle::0      2374881     78.03%     78.03% # Number of insts commited each cycle
system.cpu0.commit.committed_per_cycle::1       233614      7.68%     85.71% # Number of insts commited each cycle
system.cpu0.commit.committed_per_cycle::2        49688      1.63%     87.34% # Number of insts commited each cycle
system.cpu0.commit.committed_per_cycle::3       158196      5.20%     92.54% # Number of insts commited each cycle
system.cpu0.commit.committed_per_cycle::4        22026      0.72%     93.26% # Number of insts commited each cycle
system.cpu0.commit.committed_per_cycle::5         5319      0.17%     93.44% # Number of insts commited each cycle
system.cpu0.commit.committed_per_cycle::6        14769      0.49%     93.92% # Number of insts commited each cycle
system.cpu0.commit.committed_per_cycle::7        14486      0.48%     94.40% # Number of insts commited each cycle
system.cpu0.commit.committed_per_cycle::8       170496      5.60%    100.00% # Number of insts commited each cycle
system.cpu0.commit.committed_per_cycle::overflows            0      0.00%    100.00% # Number of insts commited each cycle
system.cpu0.commit.committed_per_cycle::min_value            0                       # Number of insts commited each cycle
system.cpu0.commit.committed_per_cycle::max_value            8                       # Number of insts commited each cycle
system.cpu0.commit.committed_per_cycle::total      3043475                       # Number of insts commited each cycle
system.cpu0.commit.committedInsts             1245385                       # Number of instructions committed
system.cpu0.commit.committedOps               2476261                       # Number of ops (including micro ops) committed
system.cpu0.commit.swp_count                        0                       # Number of s/w prefetches committed
system.cpu0.commit.refs                        389829                       # Number of memory references committed
system.cpu0.commit.loads                       351562                       # Number of loads committed
system.cpu0.commit.membars                          0                       # Number of memory barriers committed
system.cpu0.commit.branches                    423392                       # Number of branches committed
system.cpu0.commit.fp_insts                      3624                       # Number of committed floating point instructions.
system.cpu0.commit.int_insts                  2472555                       # Number of committed integer instructions.
system.cpu0.commit.function_calls               27106                       # Number of function calls committed.
system.cpu0.commit.op_class_0::No_OpClass         1583      0.06%      0.06% # Class of committed instruction
system.cpu0.commit.op_class_0::IntAlu         2066047     83.43%     83.50% # Class of committed instruction
system.cpu0.commit.op_class_0::IntMult          13488      0.54%     84.04% # Class of committed instruction
system.cpu0.commit.op_class_0::IntDiv            2963      0.12%     84.16% # Class of committed instruction
system.cpu0.commit.op_class_0::FloatAdd          2351      0.09%     84.26% # Class of committed instruction
system.cpu0.commit.op_class_0::FloatCmp             0      0.00%     84.26% # Class of committed instruction
system.cpu0.commit.op_class_0::FloatCvt             0      0.00%     84.26% # Class of committed instruction
system.cpu0.commit.op_class_0::FloatMult            0      0.00%     84.26% # Class of committed instruction
system.cpu0.commit.op_class_0::FloatMultAcc            0      0.00%     84.26% # Class of committed instruction
system.cpu0.commit.op_class_0::FloatDiv             0      0.00%     84.26% # Class of committed instruction
system.cpu0.commit.op_class_0::FloatMisc            0      0.00%     84.26% # Class of committed instruction
system.cpu0.commit.op_class_0::FloatSqrt            0      0.00%     84.26% # Class of committed instruction
system.cpu0.commit.op_class_0::SimdAdd              0      0.00%     84.26% # Class of committed instruction
system.cpu0.commit.op_class_0::SimdAddAcc            0      0.00%     84.26% # Class of committed instruction
system.cpu0.commit.op_class_0::SimdAlu              0      0.00%     84.26% # Class of committed instruction
system.cpu0.commit.op_class_0::SimdCmp              0      0.00%     84.26% # Class of committed instruction
system.cpu0.commit.op_class_0::SimdCvt              0      0.00%     84.26% # Class of committed instruction
system.cpu0.commit.op_class_0::SimdMisc             0      0.00%     84.26% # Class of committed instruction
system.cpu0.commit.op_class_0::SimdMult             0      0.00%     84.26% # Class of committed instruction
system.cpu0.commit.op_class_0::SimdMultAcc            0      0.00%     84.26% # Class of committed instruction
system.cpu0.commit.op_class_0::SimdShift            0      0.00%     84.26% # Class of committed instruction
system.cpu0.commit.op_class_0::SimdShiftAcc            0      0.00%     84.26% # Class of committed instruction
system.cpu0.commit.op_class_0::SimdSqrt             0      0.00%     84.26% # Class of committed instruction
system.cpu0.commit.op_class_0::SimdFloatAdd            0      0.00%     84.26% # Class of committed instruction
system.cpu0.commit.op_class_0::SimdFloatAlu            0      0.00%     84.26% # Class of committed instruction
system.cpu0.commit.op_class_0::SimdFloatCmp            0      0.00%     84.26% # Class of committed instruction
system.cpu0.commit.op_class_0::SimdFloatCvt            0      0.00%     84.26% # Class of committed instruction
system.cpu0.commit.op_class_0::SimdFloatDiv            0      0.00%     84.26% # Class of committed instruction
system.cpu0.commit.op_class_0::SimdFloatMisc            0      0.00%     84.26% # Class of committed instruction
system.cpu0.commit.op_class_0::SimdFloatMult            0      0.00%     84.26% # Class of committed instruction
system.cpu0.commit.op_class_0::SimdFloatMultAcc            0      0.00%     84.26% # Class of committed instruction
system.cpu0.commit.op_class_0::SimdFloatSqrt            0      0.00%     84.26% # Class of committed instruction
system.cpu0.commit.op_class_0::MemRead         350736     14.16%     98.42% # Class of committed instruction
system.cpu0.commit.op_class_0::MemWrite         37883      1.53%     99.95% # Class of committed instruction
system.cpu0.commit.op_class_0::FloatMemRead          826      0.03%     99.98% # Class of committed instruction
system.cpu0.commit.op_class_0::FloatMemWrite          384      0.02%    100.00% # Class of committed instruction
system.cpu0.commit.op_class_0::IprAccess            0      0.00%    100.00% # Class of committed instruction
system.cpu0.commit.op_class_0::InstPrefetch            0      0.00%    100.00% # Class of committed instruction
system.cpu0.commit.op_class_0::total          2476261                       # Class of committed instruction
system.cpu0.commit.bw_lim_events               170496                       # number cycles where commit BW limit reached
system.cpu0.rob.rob_reads                     5686045                       # The number of ROB reads
system.cpu0.rob.rob_writes                    5677500                       # The number of ROB writes
system.cpu0.timesIdled                            767                       # Number of times that the entire CPU went into an idle state and unscheduled itself
system.cpu0.idleCycles                          85140                       # Total number of cycles that the CPU has spent unscheduled due to idling
system.cpu0.committedInsts                    1245385                       # Number of Instructions Simulated
system.cpu0.committedOps                      2476261                       # Number of Ops (including micro ops) Simulated
system.cpu0.cpi                              2.552862                       # CPI: Cycles Per Instruction
system.cpu0.cpi_total                        2.552862                       # CPI: Total CPI of All Threads
system.cpu0.ipc                              0.391717                       # IPC: Instructions Per Cycle
system.cpu0.ipc_total                        0.391717                       # IPC: Total IPC of All Threads
system.cpu0.int_regfile_reads                 3325778                       # number of integer regfile reads
system.cpu0.int_regfile_writes                2226813                       # number of integer regfile writes
system.cpu0.fp_regfile_reads                     9116                       # number of floating regfile reads
system.cpu0.fp_regfile_writes                    5357                       # number of floating regfile writes
system.cpu0.cc_regfile_reads                  1583758                       # number of cc regfile reads
system.cpu0.cc_regfile_writes                  749873                       # number of cc regfile writes
system.cpu0.misc_regfile_reads                1506867                       # number of misc regfile reads
system.cpu1.branchPred.lookups                 287256                       # Number of BP lookups
system.cpu1.branchPred.condPredicted           287256                       # Number of conditional branches predicted
system.cpu1.branchPred.condIncorrect             8674                       # Number of conditional branches incorrect
system.cpu1.branchPred.BTBLookups              263143                       # Number of BTB lookups
system.cpu1.branchPred.BTBHits                      0                       # Number of BTB hits
system.cpu1.branchPred.BTBCorrect                   0                       # Number of correct BTB predictions (this stat may not work properly.
system.cpu1.branchPred.BTBHitPct             0.000000                       # BTB Hit Percentage
system.cpu1.branchPred.usedRAS                   2411                       # Number of times the RAS was used to get a target.
system.cpu1.branchPred.RASInCorrect               438                       # Number of incorrect RAS predictions.
system.cpu1.branchPred.indirectLookups         263143                       # Number of indirect predictor lookups.
system.cpu1.branchPred.indirectHits            123208                       # Number of indirect target hits.
system.cpu1.branchPred.indirectMisses          139935                       # Number of indirect misses.
system.cpu1.branchPredindirectMispredicted         4686                       # Number of mispredicted indirect branches.
system.cpu1.clk_domain.clock                      500                       # Clock period in ticks
system.cpu1.dtb.walker.pwrStateResidencyTicks::UNDEFINED   1589647500                       # Cumulative time (in ticks) in various power states
system.cpu1.apic_clk_domain.clock                8000                       # Clock period in ticks
system.cpu1.interrupts.pwrStateResidencyTicks::UNDEFINED   1589647500                       # Cumulative time (in ticks) in various power states
system.cpu1.itb.walker.pwrStateResidencyTicks::UNDEFINED   1589647500                       # Cumulative time (in ticks) in various power states
system.cpu1.workload.num_syscalls                  42                       # Number of system calls
system.cpu1.pwrStateResidencyTicks::ON     1589647500                       # Cumulative time (in ticks) in various power states
system.cpu1.numCycles                         1189808                       # number of cpu cycles simulated
system.cpu1.numWorkItemsStarted                     0                       # number of work items this cpu started
system.cpu1.numWorkItemsCompleted                   0                       # number of work items this cpu completed
system.cpu1.fetch.icacheStallCycles             80842                       # Number of cycles fetch is stalled on an Icache miss
system.cpu1.fetch.Insts                       1019387                       # Number of instructions fetch has processed
system.cpu1.fetch.Branches                     287256                       # Number of branches that fetch encountered
system.cpu1.fetch.predictedBranches            125619                       # Number of branches that fetch has predicted taken
system.cpu1.fetch.Cycles                       999407                       # Number of cycles fetch has run and was not squashing or blocked
system.cpu1.fetch.SquashCycles                  17629                       # Number of cycles fetch has spent squashing
system.cpu1.fetch.TlbCycles                         2                       # Number of cycles fetch has spent waiting for tlb
system.cpu1.fetch.MiscStallCycles               11120                       # Number of cycles fetch has spent waiting on interrupts, or bad addresses, or out of MSHRs
system.cpu1.fetch.NoActiveThreadStallCycles           10                       # Number of stall cycles due to no active thread to fetch from
system.cpu1.fetch.PendingTrapStallCycles          588                       # Number of stall cycles due to pending traps
system.cpu1.fetch.PendingQuiesceStallCycles           13                       # Number of stall cycles due to pending quiesce instructions
system.cpu1.fetch.IcacheWaitRetryStallCycles         7957                       # Number of stall cycles due to full MSHR
system.cpu1.fetch.CacheLines                    52496                       # Number of cache lines fetched
system.cpu1.fetch.IcacheSquashes                 2663                       # Number of outstanding Icache misses that were squashed
system.cpu1.fetch.rateDist::samples           1108753                       # Number of instructions fetched each cycle (Total)
system.cpu1.fetch.rateDist::mean             1.814577                       # Number of instructions fetched each cycle (Total)
system.cpu1.fetch.rateDist::stdev            3.053173                       # Number of instructions fetched each cycle (Total)
system.cpu1.fetch.rateDist::underflows              0      0.00%      0.00% # Number of instructions fetched each cycle (Total)
system.cpu1.fetch.rateDist::0                  784699     70.77%     70.77% # Number of instructions fetched each cycle (Total)
system.cpu1.fetch.rateDist::1                    9084      0.82%     71.59% # Number of instructions fetched each cycle (Total)
system.cpu1.fetch.rateDist::2                    4419      0.40%     71.99% # Number of instructions fetched each cycle (Total)
system.cpu1.fetch.rateDist::3                    8772      0.79%     72.78% # Number of instructions fetched each cycle (Total)
system.cpu1.fetch.rateDist::4                   99878      9.01%     81.79% # Number of instructions fetched each cycle (Total)
system.cpu1.fetch.rateDist::5                    8668      0.78%     82.57% # Number of instructions fetched each cycle (Total)
system.cpu1.fetch.rateDist::6                    7294      0.66%     83.23% # Number of instructions fetched each cycle (Total)
system.cpu1.fetch.rateDist::7                    6448      0.58%     83.81% # Number of instructions fetched each cycle (Total)
system.cpu1.fetch.rateDist::8                  179491     16.19%    100.00% # Number of instructions fetched each cycle (Total)
system.cpu1.fetch.rateDist::overflows               0      0.00%    100.00% # Number of instructions fetched each cycle (Total)
system.cpu1.fetch.rateDist::min_value               0                       # Number of instructions fetched each cycle (Total)
system.cpu1.fetch.rateDist::max_value               8                       # Number of instructions fetched each cycle (Total)
system.cpu1.fetch.rateDist::total             1108753                       # Number of instructions fetched each cycle (Total)
system.cpu1.fetch.branchRate                 0.241431                       # Number of branch fetches per cycle
system.cpu1.fetch.rate                       0.856766                       # Number of inst fetches per cycle
system.cpu1.decode.IdleCycles                  131149                       # Number of cycles decode is idle
system.cpu1.decode.BlockedCycles               716928                       # Number of cycles decode is blocked
system.cpu1.decode.RunCycles                    91525                       # Number of cycles decode is running
system.cpu1.decode.UnblockCycles               160327                       # Number of cycles decode is unblocking
system.cpu1.decode.SquashCycles                  8814                       # Number of cycles decode is squashing
system.cpu1.decode.DecodedInsts               1924807                       # Number of instructions handled by decode
system.cpu1.rename.SquashCycles                  8814                       # Number of cycles rename is squashing
system.cpu1.rename.IdleCycles                  156487                       # Number of cycles rename is idle
system.cpu1.rename.BlockCycles                 447481                       # Number of cycles rename is blocking
system.cpu1.rename.serializeStallCycles          3821                       # count of cycles rename stalled for serializing inst
system.cpu1.rename.RunCycles                   147470                       # Number of cycles rename is running
system.cpu1.rename.UnblockCycles               344670                       # Number of cycles rename is unblocking
system.cpu1.rename.RenamedInsts               1881760                       # Number of instructions processed by rename
system.cpu1.rename.ROBFullEvents               180839                       # Number of times rename has blocked due to ROB full
system.cpu1.rename.IQFullEvents                 27639                       # Number of times rename has blocked due to IQ full
system.cpu1.rename.LQFullEvents                 71147                       # Number of times rename has blocked due to LQ full
system.cpu1.rename.SQFullEvents                 32868                       # Number of times rename has blocked due to SQ full
system.cpu1.rename.RenamedOperands            2267782                       # Number of destination operands rename has renamed
system.cpu1.rename.RenameLookups              4332062                       # Number of register rename lookups that rename has made
system.cpu1.rename.int_rename_lookups         2291354                       # Number of integer rename lookups
system.cpu1.rename.fp_rename_lookups            17535                       # Number of floating rename lookups
system.cpu1.rename.CommittedMaps              1750873                       # Number of HB maps that are committed
system.cpu1.rename.UndoneMaps                  516909                       # Number of HB maps that are undone due to squashing
system.cpu1.rename.serializingInsts                73                       # count of serializing insts renamed
system.cpu1.rename.tempSerializingInsts            75                       # count of temporary serializing insts renamed
system.cpu1.rename.skidInsts                  1006171                       # count of insts added to the skid buffer
system.cpu1.memDep0.insertedLoads              282332                       # Number of loads inserted to the mem dependence unit.
system.cpu1.memDep0.insertedStores              24234                       # Number of stores inserted to the mem dependence unit.
system.cpu1.memDep0.conflictingLoads             7543                       # Number of conflicting loads.
system.cpu1.memDep0.conflictingStores            2071                       # Number of conflicting stores.
system.cpu1.iq.iqInstsAdded                   1806376                       # Number of instructions added to the IQ (excludes non-spec)
system.cpu1.iq.iqNonSpecInstsAdded                126                       # Number of non-speculative instructions added to the IQ
system.cpu1.iq.iqInstsIssued                  1803077                       # Number of instructions issued
system.cpu1.iq.iqSquashedInstsIssued             6693                       # Number of squashed instructions issued
system.cpu1.iq.iqSquashedInstsExamined         341809                       # Number of squashed instructions iterated over during squash; mainly for profiling
system.cpu1.iq.iqSquashedOperandsExamined       518969                       # Number of squashed operands that are examined and possibly removed from graph
system.cpu1.iq.iqSquashedNonSpecRemoved            84                       # Number of squashed non-spec instructions that were removed
system.cpu1.iq.issued_per_cycle::samples      1108753                       # Number of insts issued each cycle
system.cpu1.iq.issued_per_cycle::mean        1.626221                       # Number of insts issued each cycle
system.cpu1.iq.issued_per_cycle::stdev       1.785577                       # Number of insts issued each cycle
system.cpu1.iq.issued_per_cycle::underflows            0      0.00%      0.00% # Number of insts issued each cycle
system.cpu1.iq.issued_per_cycle::0             410180     36.99%     36.99% # Number of insts issued each cycle
system.cpu1.iq.issued_per_cycle::1             225576     20.35%     57.34% # Number of insts issued each cycle
system.cpu1.iq.issued_per_cycle::2             154696     13.95%     71.29% # Number of insts issued each cycle
system.cpu1.iq.issued_per_cycle::3             159014     14.34%     85.63% # Number of insts issued each cycle
[...]
system.ruby.L1Cache_Controller.NP.Transient_Local_GETX::total         9481                      
system.ruby.L1Cache_Controller.NP.Transient_Local_GETS |       10448     18.80%     18.80% |       10409     18.73%     37.53% |       10475     18.85%     56.38% |       10440     18.78%     75.16% |       13805     24.84%    100.00%
system.ruby.L1Cache_Controller.NP.Transient_Local_GETS::total        55577                      
system.ruby.L1Cache_Controller.NP.Own_Lock_or_Unlock |         706     19.18%     19.18% |         713     19.37%     38.55% |         717     19.48%     58.03% |         645     17.52%     75.55% |         900     24.45%    100.00%
system.ruby.L1Cache_Controller.NP.Own_Lock_or_Unlock::total         3681                      
system.ruby.L1Cache_Controller.I.Load    |           1     12.50%     12.50% |           1     12.50%     25.00% |           1     12.50%     37.50% |           1     12.50%     50.00% |           4     50.00%    100.00%
system.ruby.L1Cache_Controller.I.Load::total            8                      
system.ruby.L1Cache_Controller.I.Store   |           4     33.33%     33.33% |           2     16.67%     50.00% |           0      0.00%     50.00% |           2     16.67%     66.67% |           4     33.33%    100.00%
system.ruby.L1Cache_Controller.I.Store::total           12                      
system.ruby.L1Cache_Controller.S.Load    |       97441     45.77%     45.77% |        4072      1.91%     47.68% |       37397     17.57%     65.25% |       73946     34.74%     99.99% |          28      0.01%    100.00%
system.ruby.L1Cache_Controller.S.Load::total       212884                      
system.ruby.L1Cache_Controller.S.Ifetch  |      106953     33.70%     33.70% |        1234      0.39%     34.09% |      136928     43.15%     77.24% |       72238     22.76%    100.00% |           0      0.00%    100.00%
system.ruby.L1Cache_Controller.S.Ifetch::total       317353                      
system.ruby.L1Cache_Controller.S.Store   |          53     27.89%     27.89% |          45     23.68%     51.58% |          43     22.63%     74.21% |          49     25.79%    100.00% |           0      0.00%    100.00%
system.ruby.L1Cache_Controller.S.Store::total          190                      
system.ruby.L1Cache_Controller.S.L1_Replacement |         183     23.58%     23.58% |         160     20.62%     44.20% |         195     25.13%     69.33% |         238     30.67%    100.00% |           0      0.00%    100.00%
system.ruby.L1Cache_Controller.S.L1_Replacement::total          776                      
system.ruby.L1Cache_Controller.S.Transient_Local_GETX |           0      0.00%      0.00% |           0      0.00%      0.00% |           0      0.00%      0.00% |           0      0.00%      0.00% |           4    100.00%    100.00%
system.ruby.L1Cache_Controller.S.Transient_Local_GETX::total            4                      
system.ruby.L1Cache_Controller.S.Transient_Local_GETS_Last_Token |           1     25.00%     25.00% |           1     25.00%     50.00% |           1     25.00%     75.00% |           1     25.00%    100.00% |           0      0.00%    100.00%
system.ruby.L1Cache_Controller.S.Transient_Local_GETS_Last_Token::total            4                      
system.ruby.L1Cache_Controller.M.Load    |       17360     23.48%     23.48% |       20698     27.99%     51.47% |       17112     23.14%     74.61% |       17345     23.46%     98.06% |        1433      1.94%    100.00%
system.ruby.L1Cache_Controller.M.Load::total        73948                      
system.ruby.L1Cache_Controller.M.Ifetch  |      125270     29.23%     29.23% |       49482     11.54%     40.77% |      153851     35.89%     76.66% |      100022     23.34%    100.00% |           0      0.00%    100.00%
system.ruby.L1Cache_Controller.M.Ifetch::total       428625                      
system.ruby.L1Cache_Controller.M.Store   |          44     15.71%     15.71% |          46     16.43%     32.14% |          41     14.64%     46.79% |          43     15.36%     62.14% |         106     37.86%    100.00%
system.ruby.L1Cache_Controller.M.Store::total          280                      
system.ruby.L1Cache_Controller.M.L1_Replacement |        1740     25.00%     25.00% |        1805     25.93%     50.93% |        1717     24.67%     75.60% |        1698     24.40%    100.00% |           0      0.00%    100.00%
system.ruby.L1Cache_Controller.M.L1_Replacement::total         6960                      
system.ruby.L1Cache_Controller.M.Transient_Local_GETX |           0      0.00%      0.00% |           0      0.00%      0.00% |           0      0.00%      0.00% |           0      0.00%      0.00% |           4    100.00%    100.00%
system.ruby.L1Cache_Controller.M.Transient_Local_GETX::total            4                      
system.ruby.L1Cache_Controller.M.Persistent_GETX |           0      0.00%      0.00% |           0      0.00%      0.00% |           0      0.00%      0.00% |           0      0.00%      0.00% |           9    100.00%    100.00%
system.ruby.L1Cache_Controller.M.Persistent_GETX::total            9                      
system.ruby.L1Cache_Controller.M.Own_Lock_or_Unlock |         169     23.90%     23.90% |         160     22.63%     46.53% |         169     23.90%     70.44% |         195     27.58%     98.02% |          14      1.98%    100.00%
system.ruby.L1Cache_Controller.M.Own_Lock_or_Unlock::total          707                      
system.ruby.L1Cache_Controller.MM.Load   |      140764     27.76%     27.76% |      120422     23.75%     51.52% |      121688     24.00%     75.52% |      124118     24.48%    100.00% |           0      0.00%    100.00%
system.ruby.L1Cache_Controller.MM.Load::total       506992                      
system.ruby.L1Cache_Controller.MM.Store  |       35987     38.19%     38.19% |       11614     12.32%     50.51% |       18164     19.28%     69.79% |       26877     28.52%     98.31% |        1594      1.69%    100.00%
system.ruby.L1Cache_Controller.MM.Store::total        94236                      
system.ruby.L1Cache_Controller.MM.L1_Replacement |         538     25.28%     25.28% |         530     24.91%     50.19% |         530     24.91%     75.09% |         530     24.91%    100.00% |           0      0.00%    100.00%
system.ruby.L1Cache_Controller.MM.L1_Replacement::total         2128                      
system.ruby.L1Cache_Controller.MM.Transient_Local_GETX |           1     25.00%     25.00% |           1     25.00%     50.00% |           1     25.00%     75.00% |           1     25.00%    100.00% |           0      0.00%    100.00%
system.ruby.L1Cache_Controller.MM.Transient_Local_GETX::total            4                      
system.ruby.L1Cache_Controller.MM.Transient_Local_GETS |          19     18.63%     18.63% |          79     77.45%     96.08% |           0      0.00%     96.08% |           4      3.92%    100.00% |           0      0.00%    100.00%
system.ruby.L1Cache_Controller.MM.Transient_Local_GETS::total          102                      
system.ruby.L1Cache_Controller.MM.Persistent_GETS |           5     27.78%     27.78% |           3     16.67%     44.44% |           2     11.11%     55.56% |           4     22.22%     77.78% |           4     22.22%    100.00%
system.ruby.L1Cache_Controller.MM.Persistent_GETS::total           18                      
system.ruby.L1Cache_Controller.MM.Own_Lock_or_Unlock |          47     21.36%     21.36% |          51     23.18%     44.55% |          39     17.73%     62.27% |          83     37.73%    100.00% |           0      0.00%    100.00%
system.ruby.L1Cache_Controller.MM.Own_Lock_or_Unlock::total          220                      
system.ruby.L1Cache_Controller.M_W.Load  |       11203     25.19%     25.19% |       11193     25.16%     50.35% |       11096     24.94%     75.29% |       10866     24.43%     99.72% |         124      0.28%    100.00%
system.ruby.L1Cache_Controller.M_W.Load::total        44482                      
system.ruby.L1Cache_Controller.M_W.Ifetch |         418     24.88%     24.88% |         415     24.70%     49.58% |         435     25.89%     75.48% |         412     24.52%    100.00% |           0      0.00%    100.00%
system.ruby.L1Cache_Controller.M_W.Ifetch::total         1680                      
system.ruby.L1Cache_Controller.M_W.Store |          12     25.00%     25.00% |          12     25.00%     50.00% |          12     25.00%     75.00% |          12     25.00%    100.00% |           0      0.00%    100.00%
system.ruby.L1Cache_Controller.M_W.Store::total           48                      
system.ruby.L1Cache_Controller.M_W.Transient_Local_GETX |           0      0.00%      0.00% |           0      0.00%      0.00% |           0      0.00%      0.00% |           0      0.00%      0.00% |           9    100.00%    100.00%
system.ruby.L1Cache_Controller.M_W.Transient_Local_GETX::total            9                      
system.ruby.L1Cache_Controller.M_W.Own_Lock_or_Unlock |          22     23.66%     23.66% |          27     29.03%     52.69% |          24     25.81%     78.49% |          20     21.51%    100.00% |           0      0.00%    100.00%
system.ruby.L1Cache_Controller.M_W.Own_Lock_or_Unlock::total           93                      
system.ruby.L1Cache_Controller.M_W.Use_TimeoutNoStarvers |        3039     24.79%     24.79% |        3040     24.80%     49.60% |        3030     24.72%     74.32% |        3029     24.71%     99.03% |         119      0.97%    100.00%
system.ruby.L1Cache_Controller.M_W.Use_TimeoutNoStarvers::total        12257                      
system.ruby.L1Cache_Controller.MM_W.Load |          40     31.25%     31.25% |          28     21.88%     53.12% |          37     28.91%     82.03% |          23     17.97%    100.00% |           0      0.00%    100.00%
system.ruby.L1Cache_Controller.MM_W.Load::total          128                      
system.ruby.L1Cache_Controller.MM_W.Store |        2210     24.52%     24.52% |        2620     29.07%     53.60% |        2095     23.25%     76.84% |        2083     23.11%     99.96% |           4      0.04%    100.00%
system.ruby.L1Cache_Controller.MM_W.Store::total         9012                      
system.ruby.L1Cache_Controller.MM_W.Transient_Local_GETS |           5     29.41%     29.41% |           3     17.65%     47.06% |           1      5.88%     52.94% |           4     23.53%     76.47% |           4     23.53%    100.00%
system.ruby.L1Cache_Controller.MM_W.Transient_Local_GETS::total           17                      
system.ruby.L1Cache_Controller.MM_W.Own_Lock_or_Unlock |           5     16.67%     16.67% |           8     26.67%     43.33% |           9     30.00%     73.33% |           8     26.67%    100.00% |           0      0.00%    100.00%
system.ruby.L1Cache_Controller.MM_W.Own_Lock_or_Unlock::total           30                      
system.ruby.L1Cache_Controller.MM_W.Use_TimeoutNoStarvers |         605     24.95%     24.95% |         653     26.93%     51.88% |         581     23.96%     75.84% |         582     24.00%     99.84% |           4      0.16%    100.00%
system.ruby.L1Cache_Controller.MM_W.Use_TimeoutNoStarvers::total         2425                      
system.ruby.L1Cache_Controller.IM.Data_All_Tokens |         540     24.69%     24.69% |         596     27.25%     51.94% |         526     24.05%     75.99% |         521     23.82%     99.82% |           4      0.18%    100.00%
system.ruby.L1Cache_Controller.IM.Data_All_Tokens::total         2187                      
system.ruby.L1Cache_Controller.IM.Transient_Local_GETS |           0      0.00%      0.00% |           0      0.00%      0.00% |           1    100.00%    100.00% |           0      0.00%    100.00% |           0      0.00%    100.00%
system.ruby.L1Cache_Controller.IM.Transient_Local_GETS::total            1                      
system.ruby.L1Cache_Controller.IM.Own_Lock_or_Unlock |          41     21.81%     21.81% |          43     22.87%     44.68% |          29     15.43%     60.11% |          75     39.89%    100.00% |           0      0.00%    100.00%
system.ruby.L1Cache_Controller.IM.Own_Lock_or_Unlock::total          188                      
system.ruby.L1Cache_Controller.IM.Request_Timeout |         166     17.95%     17.95% |         222     24.00%     41.95% |         248     26.81%     68.76% |         289     31.24%    100.00% |           0      0.00%    100.00%
system.ruby.L1Cache_Controller.IM.Request_Timeout::total          925                      
system.ruby.L1Cache_Controller.SM.Data_All_Tokens |          53     27.89%     27.89% |          45     23.68%     51.58% |          43     22.63%     74.21% |          49     25.79%    100.00% |           0      0.00%    100.00%
system.ruby.L1Cache_Controller.SM.Data_All_Tokens::total          190                      
system.ruby.L1Cache_Controller.SM.Ack    |           1     25.00%     25.00% |           1     25.00%     50.00% |           1     25.00%     75.00% |           1     25.00%    100.00% |           0      0.00%    100.00%
system.ruby.L1Cache_Controller.SM.Ack::total            4                      
system.ruby.L1Cache_Controller.IS.Data_Shared |         401     24.66%     24.66% |         382     23.49%     48.15% |         404     24.85%     73.00% |         435     26.75%     99.75% |           4      0.25%    100.00%
system.ruby.L1Cache_Controller.IS.Data_Shared::total         1626                      
system.ruby.L1Cache_Controller.IS.Data_All_Tokens |        3052     24.80%     24.80% |        3052     24.80%     49.60% |        3042     24.72%     74.32% |        3041     24.71%     99.03% |         119      0.97%    100.00%
system.ruby.L1Cache_Controller.IS.Data_All_Tokens::total        12306                      
system.ruby.L1Cache_Controller.IS.Own_Lock_or_Unlock |         148     24.03%     24.03% |         133     21.59%     45.62% |         146     23.70%     69.32% |         175     28.41%     97.73% |          14      2.27%    100.00%
system.ruby.L1Cache_Controller.IS.Own_Lock_or_Unlock::total          616                      
system.ruby.L1Cache_Controller.IS.Request_Timeout |        1455     27.59%     27.59% |        1222     23.17%     50.77% |        1254     23.78%     74.55% |        1328     25.18%     99.73% |          14      0.27%    100.00%
system.ruby.L1Cache_Controller.IS.Request_Timeout::total         5273                      
system.ruby.L1Cache_Controller.I_L.Load  |           0      0.00%      0.00% |           0      0.00%      0.00% |           0      0.00%      0.00% |           0      0.00%      0.00% |           9    100.00%    100.00%
system.ruby.L1Cache_Controller.I_L.Load::total            9                      
system.ruby.L1Cache_Controller.I_L.Store |           0      0.00%      0.00% |           0      0.00%      0.00% |           1     50.00%     50.00% |           1     50.00%    100.00% |           0      0.00%    100.00%
system.ruby.L1Cache_Controller.I_L.Store::total            2                      
system.ruby.L1Cache_Controller.I_L.Transient_Local_GETX |           2     33.33%     33.33% |           2     33.33%     66.67% |           1     16.67%     83.33% |           1     16.67%    100.00% |           0      0.00%    100.00%
system.ruby.L1Cache_Controller.I_L.Transient_Local_GETX::total            6                      
system.ruby.L1Cache_Controller.I_L.Transient_Local_GETS |           6     22.22%     22.22% |           6     22.22%     44.44% |           8     29.63%     74.07% |           7     25.93%    100.00% |           0      0.00%    100.00%
system.ruby.L1Cache_Controller.I_L.Transient_Local_GETS::total           27                      
system.ruby.L1Cache_Controller.I_L.Persistent_GETX |         172     19.93%     19.93% |         167     19.35%     39.28% |         180     20.86%     60.14% |         135     15.64%     75.78% |         209     24.22%    100.00%
system.ruby.L1Cache_Controller.I_L.Persistent_GETX::total          863                      
system.ruby.L1Cache_Controller.I_L.Persistent_GETS |         534     18.95%     18.95% |         546     19.38%     38.33% |         537     19.06%     57.38% |         510     18.10%     75.48% |         691     24.52%    100.00%
system.ruby.L1Cache_Controller.I_L.Persistent_GETS::total         2818                      
system.ruby.L1Cache_Controller.I_L.Own_Lock_or_Unlock |           5     31.25%     31.25% |           3     18.75%     50.00% |           1      6.25%     56.25% |           3     18.75%     75.00% |           4     25.00%    100.00%
system.ruby.L1Cache_Controller.I_L.Own_Lock_or_Unlock::total           16                      
system.ruby.L1Cache_Controller.IM_L.Own_Lock_or_Unlock |           0      0.00%      0.00% |           0      0.00%      0.00% |           1     50.00%     50.00% |           1     50.00%    100.00% |           0      0.00%    100.00%
system.ruby.L1Cache_Controller.IM_L.Own_Lock_or_Unlock::total            2                      
system.ruby.L1Cache_Controller.IS_L.Own_Lock_or_Unlock |           0      0.00%      0.00% |           0      0.00%      0.00% |           0      0.00%      0.00% |           0      0.00%      0.00% |           9    100.00%    100.00%
system.ruby.L1Cache_Controller.IS_L.Own_Lock_or_Unlock::total            9                      
system.ruby.L2Cache_Controller.L1_GETS          13932      0.00%      0.00%
system.ruby.L2Cache_Controller.L1_GETX           2377      0.00%      0.00%
system.ruby.L2Cache_Controller.L1_INV             141      0.00%      0.00%
system.ruby.L2Cache_Controller.Writeback_Shared_Data            1      0.00%      0.00%
system.ruby.L2Cache_Controller.Writeback_All_Tokens         9863      0.00%      0.00%
system.ruby.L2Cache_Controller.Persistent_GETX          218      0.00%      0.00%
system.ruby.L2Cache_Controller.Persistent_GETS          709      0.00%      0.00%
system.ruby.L2Cache_Controller.Own_Lock_or_Unlock          927      0.00%      0.00%
system.ruby.L2Cache_Controller.NP.L1_GETS        12293      0.00%      0.00%
system.ruby.L2Cache_Controller.NP.L1_GETX         1989      0.00%      0.00%
system.ruby.L2Cache_Controller.NP.L1_INV          106      0.00%      0.00%
system.ruby.L2Cache_Controller.NP.Writeback_All_Tokens         8892      0.00%      0.00%
system.ruby.L2Cache_Controller.NP.Own_Lock_or_Unlock          923      0.00%      0.00%
system.ruby.L2Cache_Controller.I.L1_GETS            4      0.00%      0.00%
system.ruby.L2Cache_Controller.I.L1_GETX            4      0.00%      0.00%
system.ruby.L2Cache_Controller.I.L1_INV             8      0.00%      0.00%
system.ruby.L2Cache_Controller.I.Writeback_All_Tokens          196      0.00%      0.00%
system.ruby.L2Cache_Controller.I.Persistent_GETS            4      0.00%      0.00%
system.ruby.L2Cache_Controller.O.L1_GETS            5      0.00%      0.00%
system.ruby.L2Cache_Controller.O.L1_GETX          190      0.00%      0.00%
system.ruby.L2Cache_Controller.O.Writeback_Shared_Data            1      0.00%      0.00%
system.ruby.L2Cache_Controller.O.Writeback_All_Tokens          775      0.00%      0.00%
system.ruby.L2Cache_Controller.M.L1_GETS         1621      0.00%      0.00%
system.ruby.L2Cache_Controller.M.L1_GETX          192      0.00%      0.00%
system.ruby.L2Cache_Controller.I_L.L1_GETS            9      0.00%      0.00%
system.ruby.L2Cache_Controller.I_L.L1_GETX            2      0.00%      0.00%
system.ruby.L2Cache_Controller.I_L.L1_INV           27      0.00%      0.00%
system.ruby.L2Cache_Controller.I_L.Persistent_GETX          218      0.00%      0.00%
system.ruby.L2Cache_Controller.I_L.Persistent_GETS          705      0.00%      0.00%
system.ruby.L2Cache_Controller.I_L.Own_Lock_or_Unlock            4      0.00%      0.00%

---------- End Simulation Statistics   ----------
