
---------- Begin Simulation Statistics ----------
sim_seconds                                  0.001589                       # Number of seconds simulated
sim_ticks                                  1588942500                       # Number of ticks simulated
final_tick                                 1588942500                       # Number of ticks from beginning of simulation (restored from checkpoints and never reset)
sim_freq                                 1000000000000                       # Frequency of simulated ticks
host_inst_rate                                  41285                       # Simulator instruction rate (inst/s)
host_op_rate                                    82018                       # Simulator op (including micro ops) rate (op/s)
host_tick_rate                               16734003                       # Simulator tick rate (ticks/s)
host_mem_usage                                 847564                       # Number of bytes of host memory used
host_seconds                                    94.95                       # Real time elapsed on the host
sim_insts                                     3920119                       # Number of instructions simulated
sim_ops                                       7787876                       # Number of ops (including micro ops) simulated
system.voltage_domain.voltage                       1                       # Voltage in Volts
system.clk_domain.clock                          1000                       # Clock period in ticks
system.mem_ctrls.pwrStateResidencyTicks::UNDEFINED   1588942500                       # Cumulative time (in ticks) in various power states
system.mem_ctrls.bytes_read::ruby.dir_cntrl0       906048                       # Number of bytes read from this memory
system.mem_ctrls.bytes_read::total             906048                       # Number of bytes read from this memory
system.mem_ctrls.num_reads::ruby.dir_cntrl0        14157                       # Number of read requests responded to by this memory
system.mem_ctrls.num_reads::total               14157                       # Number of read requests responded to by this memory
system.mem_ctrls.bw_read::ruby.dir_cntrl0    570220760                       # Total read bandwidth from this memory (bytes/s)
system.mem_ctrls.bw_read::total             570220760                       # Total read bandwidth from this memory (bytes/s)
system.mem_ctrls.bw_total::ruby.dir_cntrl0    570220760                       # Total bandwidth to/from this memory (bytes/s)
system.mem_ctrls.bw_total::total            570220760                       # Total bandwidth to/from this memory (bytes/s)
system.mem_ctrls.readReqs                       14157                       # Number of read requests accepted
system.mem_ctrls.avgNetLat                       0.00                       # Average network latency to DRAM controller
system.mem_ctrls.writeReqs                          0                       # Number of write requests accepted
system.mem_ctrls.readBursts                     14157                       # Number of DRAM read bursts, including those serviced by the write queue
system.mem_ctrls.writeBursts                        0                       # Number of DRAM write bursts, including those merged in the write queue
system.mem_ctrls.bytesReadDRAM                 906048                       # Total number of bytes read from DRAM
system.mem_ctrls.bytesReadWrQ                       0                       # Total number of bytes read from write queue
system.mem_ctrls.bytesWritten                       0                       # Total number of bytes written to DRAM
system.mem_ctrls.bytesReadSys                  906048                       # Total read bytes from the system interface side
system.mem_ctrls.bytesWrittenSys                    0                       # Total written bytes from the system interface side
system.mem_ctrls.servicedByWrQ                      0                       # Number of DRAM read bursts serviced by the write queue
system.mem_ctrls.mergedWrBursts                     0                       # Number of DRAM write bursts merged with an existing one
system.mem_ctrls.neitherReadNorWriteReqs            0                       # Number of requests that are neither read nor write
system.mem_ctrls.perBankRdBursts::0               849                       # Per bank write bursts
system.mem_ctrls.perBankRdBursts::1               718                       # Per bank write bursts
system.mem_ctrls.perBankRdBursts::2               792                       # Per bank write bursts
system.mem_ctrls.perBankRdBursts::3               797                       # Per bank write bursts
system.mem_ctrls.perBankRdBursts::4               863                       # Per bank write bursts
system.mem_ctrls.perBankRdBursts::5               963                       # Per bank write bursts
system.mem_ctrls.perBankRdBursts::6              1055                       # Per bank write bursts
system.mem_ctrls.perBankRdBursts::7               987                       # Per bank write bursts
system.mem_ctrls.perBankRdBursts::8               790                       # Per bank write bursts
system.mem_ctrls.perBankRdBursts::9               845                       # Per bank write bursts
system.mem_ctrls.perBankRdBursts::10              836                       # Per bank write bursts
system.mem_ctrls.perBankRdBursts::11              806                       # Per bank write bursts
system.mem_ctrls.perBankRdBursts::12              868                       # Per bank write bursts
system.mem_ctrls.perBankRdBursts::13              977                       # Per bank write bursts
system.mem_ctrls.perBankRdBursts::14             1020                       # Per bank write bursts
system.mem_ctrls.perBankRdBursts::15              991                       # Per bank write bursts
system.mem_ctrls.perBankWrBursts::0                 0                       # Per bank write bursts
system.mem_ctrls.perBankWrBursts::1                 0                       # Per bank write bursts
system.mem_ctrls.perBankWrBursts::2                 0                       # Per bank write bursts
system.mem_ctrls.perBankWrBursts::3                 0                       # Per bank write bursts
system.mem_ctrls.perBankWrBursts::4                 0                       # Per bank write bursts
system.mem_ctrls.perBankWrBursts::5                 0                       # Per bank write bursts
system.mem_ctrls.perBankWrBursts::6                 0                       # Per bank write bursts
system.mem_ctrls.perBankWrBursts::7                 0                       # Per bank write bursts
system.mem_ctrls.perBankWrBursts::8                 0                       # Per bank write bursts
system.mem_ctrls.perBankWrBursts::9                 0                       # Per bank write bursts
system.mem_ctrls.perBankWrBursts::10                0                       # Per bank write bursts
system.mem_ctrls.perBankWrBursts::11                0                       # Per bank write bursts
system.mem_ctrls.perBankWrBursts::12                0                       # Per bank write bursts
system.mem_ctrls.perBankWrBursts::13                0                       # Per bank write bursts
system.mem_ctrls.perBankWrBursts::14                0                       # Per bank write bursts
system.mem_ctrls.perBankWrBursts::15                0                       # Per bank write bursts
system.mem_ctrls.numRdRetry                         0                       # Number of times read queue was full causing retry
system.mem_ctrls.numWrRetry                         0                       # Number of times write queue was full causing retry
system.mem_ctrls.totGap                    1588877000                       # Total gap between requests
system.mem_ctrls.readPktSize::0                     0                       # Read request sizes (log2)
system.mem_ctrls.readPktSize::1                     0                       # Read request sizes (log2)
system.mem_ctrls.readPktSize::2                     0                       # Read request sizes (log2)
system.mem_ctrls.readPktSize::3                     0                       # Read request sizes (log2)
system.mem_ctrls.readPktSize::4                     0                       # Read request sizes (log2)
system.mem_ctrls.readPktSize::5                     0                       # Read request sizes (log2)
system.mem_ctrls.readPktSize::6                 14157                       # Read request sizes (log2)
system.mem_ctrls.writePktSize::0                    0                       # Write request sizes (log2)
system.mem_ctrls.writePktSize::1                    0                       # Write request sizes (log2)
system.mem_ctrls.writePktSize::2                    0                       # Write request sizes (log2)
system.mem_ctrls.writePktSize::3                    0                       # Write request sizes (log2)
system.mem_ctrls.writePktSize::4                    0                       # Write request sizes (log2)
system.mem_ctrls.writePktSize::5                    0                       # Write request sizes (log2)
system.mem_ctrls.writePktSize::6                    0                       # Write request sizes (log2)
system.mem_ctrls.rdQLenPdf::0                    1962                       # What read queue length does an incoming req see
system.mem_ctrls.rdQLenPdf::1                    2757                       # What read queue length does an incoming req see
system.mem_ctrls.rdQLenPdf::2                    2417                       # What read queue length does an incoming req see
system.mem_ctrls.rdQLenPdf::3                    1865                       # What read queue length does an incoming req see
system.mem_ctrls.rdQLenPdf::4                    1340                       # What read queue length does an incoming req see
system.mem_ctrls.rdQLenPdf::5                     998                       # What read queue length does an incoming req see
system.mem_ctrls.rdQLenPdf::6                     865                       # What read queue length does an incoming req see
system.mem_ctrls.rdQLenPdf::7                     639                       # What read queue length does an incoming req see
system.mem_ctrls.rdQLenPdf::8                     508                       # What read queue length does an incoming req see
system.mem_ctrls.rdQLenPdf::9                     353                       # What read queue length does an incoming req see
system.mem_ctrls.rdQLenPdf::10                    216                       # What read queue length does an incoming req see
system.mem_ctrls.rdQLenPdf::11                    126                       # What read queue length does an incoming req see
system.mem_ctrls.rdQLenPdf::12                     65                       # What read queue length does an incoming req see
system.mem_ctrls.rdQLenPdf::13                     23                       # What read queue length does an incoming req see
system.mem_ctrls.rdQLenPdf::14                     13                       # What read queue length does an incoming req see
system.mem_ctrls.rdQLenPdf::15                      7                       # What read queue length does an incoming req see
system.mem_ctrls.rdQLenPdf::16                      2                       # What read queue length does an incoming req see
system.mem_ctrls.rdQLenPdf::17                      1                       # What read queue length does an incoming req see
system.mem_ctrls.rdQLenPdf::18                      0                       # What read queue length does an incoming req see
system.mem_ctrls.rdQLenPdf::19                      0                       # What read queue length does an incoming req see
system.mem_ctrls.rdQLenPdf::20                      0                       # What read queue length does an incoming req see
system.mem_ctrls.rdQLenPdf::21                      0                       # What read queue length does an incoming req see
system.mem_ctrls.rdQLenPdf::22                      0                       # What read queue length does an incoming req see
system.mem_ctrls.rdQLenPdf::23                      0                       # What read queue length does an incoming req see
system.mem_ctrls.rdQLenPdf::24                      0                       # What read queue length does an incoming req see
system.mem_ctrls.rdQLenPdf::25                      0                       # What read queue length does an incoming req see
system.mem_ctrls.rdQLenPdf::26                      0                       # What read queue length does an incoming req see
system.mem_ctrls.rdQLenPdf::27                      0                       # What read queue length does an incoming req see
system.mem_ctrls.rdQLenPdf::28                      0                       # What read queue length does an incoming req see
system.mem_ctrls.rdQLenPdf::29                      0                       # What read queue length does an incoming req see
system.mem_ctrls.rdQLenPdf::30                      0                       # What read queue length does an incoming req see
system.mem_ctrls.rdQLenPdf::31                      0                       # What read queue length does an incoming req see
system.mem_ctrls.wrQLenPdf::0                       0                       # What write queue length does an incoming req see
system.mem_ctrls.wrQLenPdf::1                       0                       # What write queue length does an incoming req see
system.mem_ctrls.wrQLenPdf::2                       0                       # What write queue length does an incoming req see
system.mem_ctrls.wrQLenPdf::3                       0                       # What write queue length does an incoming req see
system.mem_ctrls.wrQLenPdf::4                       0                       # What write queue length does an incoming req see
system.mem_ctrls.wrQLenPdf::5                       0                       # What write queue length does an incoming req see
system.mem_ctrls.wrQLenPdf::6                       0                       # What write queue length does an incoming req see
system.mem_ctrls.wrQLenPdf::7                       0                       # What write queue length does an incoming req see
system.mem_ctrls.wrQLenPdf::8                       0                       # What write queue length does an incoming req see
system.mem_ctrls.wrQLenPdf::9                       0                       # What write queue length does an incoming req see
system.mem_ctrls.wrQLenPdf::10                      0                       # What write queue length does an incoming req see
system.mem_ctrls.wrQLenPdf::11                      0                       # What write queue length does an incoming req see
system.mem_ctrls.wrQLenPdf::12                      0                       # What write queue length does an incoming req see
system.mem_ctrls.wrQLenPdf::13                      0                       # What write queue length does an incoming req see
system.mem_ctrls.wrQLenPdf::14                      0                       # What write queue length does an incoming req see
system.mem_ctrls.wrQLenPdf::15                      0                       # What write queue length does an incoming req see
system.mem_ctrls.wrQLenPdf::16                      0                       # What write queue length does an incoming req see
system.mem_ctrls.wrQLenPdf::17                      0                       # What write queue length does an incoming req see
system.mem_ctrls.wrQLenPdf::18                      0                       # What write queue length does an incoming req see
system.mem_ctrls.wrQLenPdf::19                      0                       # What write queue length does an incoming req see
system.mem_ctrls.wrQLenPdf::20                      0                       # What write queue length does an incoming req see
system.mem_ctrls.wrQLenPdf::21                      0                       # What write queue length does an incoming req see
system.mem_ctrls.wrQLenPdf::22                      0                       # What write queue length does an incoming req see
system.mem_ctrls.wrQLenPdf::23                      0                       # What write queue length does an incoming req see
system.mem_ctrls.wrQLenPdf::24                      0                       # What write queue length does an incoming req see
system.mem_ctrls.wrQLenPdf::25                      0                       # What write queue length does an incoming req see
system.mem_ctrls.wrQLenPdf::26                      0                       # What write queue length does an incoming req see
system.mem_ctrls.wrQLenPdf::27                      0                       # What write queue length does an incoming req see
system.mem_ctrls.wrQLenPdf::28                      0                       # What write queue length does an incoming req see
system.mem_ctrls.wrQLenPdf::29                      0                       # What write queue length does an incoming req see
system.mem_ctrls.wrQLenPdf::30                      0                       # What write queue length does an incoming req see
system.mem_ctrls.wrQLenPdf::31                      0                       # What write queue length does an incoming req see
system.mem_ctrls.wrQLenPdf::32                      0                       # What write queue length does an incoming req see
system.mem_ctrls.wrQLenPdf::33                      0                       # What write queue length does an incoming req see
system.mem_ctrls.wrQLenPdf::34                      0                       # What write queue length does an incoming req see
system.mem_ctrls.wrQLenPdf::35                      0                       # What write queue length does an incoming req see
system.mem_ctrls.wrQLenPdf::36                      0                       # What write queue length does an incoming req see
system.mem_ctrls.wrQLenPdf::37                      0                       # What write queue length does an incoming req see
system.mem_ctrls.wrQLenPdf::38                      0                       # What write queue length does an incoming req see
system.mem_ctrls.wrQLenPdf::39                      0                       # What write queue length does an incoming req see
system.mem_ctrls.wrQLenPdf::40                      0                       # What write queue length does an incoming req see
system.mem_ctrls.wrQLenPdf::41                      0                       # What write queue length does an incoming req see
system.mem_ctrls.wrQLenPdf::42                      0                       # What write queue length does an incoming req see
system.mem_ctrls.wrQLenPdf::43                      0                       # What write queue length does an incoming req see
system.mem_ctrls.wrQLenPdf::44                      0                       # What write queue length does an incoming req see
system.mem_ctrls.wrQLenPdf::45                      0                       # What write queue length does an incoming req see
system.mem_ctrls.wrQLenPdf::46                      0                       # What write queue length does an incoming req see
system.mem_ctrls.wrQLenPdf::47                      0                       # What write queue length does an incoming req see
system.mem_ctrls.wrQLenPdf::48                      0                       # What write queue length does an incoming req see
system.mem_ctrls.wrQLenPdf::49                      0                       # What write queue length does an incoming req see
system.mem_ctrls.wrQLenPdf::50                      0                       # What write queue length does an incoming req see
system.mem_ctrls.wrQLenPdf::51                      0                       # What write queue length does an incoming req see
system.mem_ctrls.wrQLenPdf::52                      0                       # What write queue length does an incoming req see
system.mem_ctrls.wrQLenPdf::53                      0                       # What write queue length does an incoming req see
system.mem_ctrls.wrQLenPdf::54                      0                       # What write queue length does an incoming req see
system.mem_ctrls.wrQLenPdf::55                      0                       # What write queue length does an incoming req see
system.mem_ctrls.wrQLenPdf::56                      0                       # What write queue length does an incoming req see
system.mem_ctrls.wrQLenPdf::57                      0                       # What write queue length does an incoming req see
system.mem_ctrls.wrQLenPdf::58                      0                       # What write queue length does an incoming req see
system.mem_ctrls.wrQLenPdf::59                      0                       # What write queue length does an incoming req see
system.mem_ctrls.wrQLenPdf::60                      0                       # What write queue length does an incoming req see
system.mem_ctrls.wrQLenPdf::61                      0                       # What write queue length does an incoming req see
system.mem_ctrls.wrQLenPdf::62                      0                       # What write queue length does an incoming req see
system.mem_ctrls.wrQLenPdf::63                      0                       # What write queue length does an incoming req see
system.mem_ctrls.bytesPerActivate::samples         4886                       # Bytes accessed per row activation
system.mem_ctrls.bytesPerActivate::mean    185.123209                       # Bytes accessed per row activation
system.mem_ctrls.bytesPerActivate::gmean   115.598438                       # Bytes accessed per row activation
system.mem_ctrls.bytesPerActivate::stdev   244.549809                       # Bytes accessed per row activation
system.mem_ctrls.bytesPerActivate::0-127         2787     57.04%     57.04% # Bytes accessed per row activation
system.mem_ctrls.bytesPerActivate::128-255         1198     24.52%     81.56% # Bytes accessed per row activation
system.mem_ctrls.bytesPerActivate::256-383          294      6.02%     87.58% # Bytes accessed per row activation
system.mem_ctrls.bytesPerActivate::384-511          133      2.72%     90.30% # Bytes accessed per row activation
system.mem_ctrls.bytesPerActivate::512-639           89      1.82%     92.12% # Bytes accessed per row activation
system.mem_ctrls.bytesPerActivate::640-767           60      1.23%     93.35% # Bytes accessed per row activation
system.mem_ctrls.bytesPerActivate::768-895           33      0.68%     94.02% # Bytes accessed per row activation
system.mem_ctrls.bytesPerActivate::896-1023           31      0.63%     94.66% # Bytes accessed per row activation
system.mem_ctrls.bytesPerActivate::1024-1151          261      5.34%    100.00% # Bytes accessed per row activation
system.mem_ctrls.bytesPerActivate::total         4886                       # Bytes accessed per row activation
system.mem_ctrls.totQLat                    450905801                       # Total ticks spent queuing
system.mem_ctrls.totMemAccLat               716349551                       # Total ticks spent from burst creation until serviced by the DRAM
system.mem_ctrls.totBusLat                   70785000                       # Total ticks spent in databus transfers
system.mem_ctrls.avgQLat                     31850.38                       # Average queueing delay per DRAM burst
system.mem_ctrls.avgBusLat                    5000.00                       # Average bus latency per DRAM burst
system.mem_ctrls.avgMemAccLat                50600.38                       # Average memory access latency per DRAM burst
system.mem_ctrls.avgRdBW                       570.22                       # Average DRAM read bandwidth in MiByte/s
system.mem_ctrls.avgWrBW                         0.00                       # Average achieved write bandwidth in MiByte/s
system.mem_ctrls.avgRdBWSys                    570.22                       # Average system read bandwidth in MiByte/s
system.mem_ctrls.avgWrBWSys                      0.00                       # Average system write bandwidth in MiByte/s
system.mem_ctrls.peakBW                      12800.00                       # Theoretical peak bandwidth in MiByte/s
system.mem_ctrls.busUtil                         4.45                       # Data bus utilization in percentage
system.mem_ctrls.busUtilRead                     4.45                       # Data bus utilization in percentage for reads
system.mem_ctrls.busUtilWrite                    0.00                       # Data bus utilization in percentage for writes
system.mem_ctrls.avgRdQLen                       1.46                       # Average read queue length when enqueuing
system.mem_ctrls.avgWrQLen                       0.00                       # Average write queue length when enqueuing
system.mem_ctrls.readRowHits                     9261                       # Number of row buffer hits during reads
system.mem_ctrls.writeRowHits                       0                       # Number of row buffer hits during writes
system.mem_ctrls.readRowHitRate                 65.42                       # Row buffer hit rate for reads
system.mem_ctrls.writeRowHitRate                  nan                       # Row buffer hit rate for writes
system.mem_ctrls.avgGap                     112232.61                       # Average gap between requests
system.mem_ctrls.pageHitRate                    65.42                       # Row buffer hit rate, read and write combined
system.mem_ctrls_0.actEnergy                 18442620                       # Energy for activate commands per rank (pJ)
system.mem_ctrls_0.preEnergy                  9779715                       # Energy for precharge commands per rank (pJ)
system.mem_ctrls_0.readEnergy                50151360                       # Energy for read commands per rank (pJ)
system.mem_ctrls_0.writeEnergy                      0                       # Energy for write commands per rank (pJ)
system.mem_ctrls_0.refreshEnergy         26429520.000000                       # Energy for refresh commands per rank (pJ)
system.mem_ctrls_0.actBackEnergy             76661010                       # Energy for active background per rank (pJ)
system.mem_ctrls_0.preBackEnergy               909120                       # Energy for precharge background per rank (pJ)
system.mem_ctrls_0.actPowerDownEnergy        46667610                       # Energy for active power-down per rank (pJ)
system.mem_ctrls_0.prePowerDownEnergy        13439520                       # Energy for precharge power-down per rank (pJ)
system.mem_ctrls_0.selfRefreshEnergy        309677460                       # Energy for self refresh per rank (pJ)
system.mem_ctrls_0.totalEnergy              552157935                       # Total energy per rank (pJ)
system.mem_ctrls_0.averagePower            347.500262                       # Core power per rank (mW)
system.mem_ctrls_0.totalIdleTime           1418363783                       # Total Idle time Per DRAM Rank
system.mem_ctrls_0.memoryStateTime::IDLE      1254250                       # Time in different power states
system.mem_ctrls_0.memoryStateTime::REF      11204000                       # Time in different power states
system.mem_ctrls_0.memoryStateTime::SREF   1281119750                       # Time in different power states
system.mem_ctrls_0.memoryStateTime::PRE_PDN     34997750                       # Time in different power states
system.mem_ctrls_0.memoryStateTime::ACT     158090217                       # Time in different power states
system.mem_ctrls_0.memoryStateTime::ACT_PDN    102276533                       # Time in different power states
system.mem_ctrls_1.actEnergy                 16514820                       # Energy for activate commands per rank (pJ)
system.mem_ctrls_1.preEnergy                  8762655                       # Energy for precharge commands per rank (pJ)
system.mem_ctrls_1.readEnergy                50929620                       # Energy for read commands per rank (pJ)
system.mem_ctrls_1.writeEnergy                      0                       # Energy for write commands per rank (pJ)
system.mem_ctrls_1.refreshEnergy         26429520.000000                       # Energy for refresh commands per rank (pJ)
system.mem_ctrls_1.actBackEnergy             76468920                       # Energy for active background per rank (pJ)
system.mem_ctrls_1.preBackEnergy               892320                       # Energy for precharge background per rank (pJ)
system.mem_ctrls_1.actPowerDownEnergy        49536420                       # Energy for active power-down per rank (pJ)
system.mem_ctrls_1.prePowerDownEnergy        11840640                       # Energy for precharge power-down per rank (pJ)
system.mem_ctrls_1.selfRefreshEnergy        309278460                       # Energy for self refresh per rank (pJ)
system.mem_ctrls_1.totalEnergy              550653375                       # Total energy per rank (pJ)
system.mem_ctrls_1.averagePower            346.553368                       # Core power per rank (mW)
system.mem_ctrls_1.totalIdleTime           1418770046                       # Total Idle time Per DRAM Rank
system.mem_ctrls_1.memoryStateTime::IDLE      1185251                       # Time in different power states
system.mem_ctrls_1.memoryStateTime::REF      11204000                       # Time in different power states
system.mem_ctrls_1.memoryStateTime::SREF   1279455750                       # Time in different power states
system.mem_ctrls_1.memoryStateTime::PRE_PDN     30833250                       # Time in different power states
system.mem_ctrls_1.memoryStateTime::ACT     157646953                       # Time in different power states
system.mem_ctrls_1.memoryStateTime::ACT_PDN    108617296                       # Time in different power states
system.pwrStateResidencyTicks::UNDEFINED   1588942500                       # Cumulative time (in ticks) in various power states
system.cpu0.branchPred.lookups                 352248                       # Number of BP lookups
system.cpu0.branchPred.condPredicted           352248                       # Number of conditional branches predicted
system.cpu0.branchPred.condIncorrect             8535                       # Number of conditional branches incorrect
system.cpu0.branchPred.BTBLookups              318136                       # Number of BTB lookups
system.cpu0.branchPred.BTBHits                      0                       # Number of BTB hits
system.cpu0.branchPred.BTBCorrect                   0                       # Number of correct BTB predictions (this stat may not work properly.
system.cpu0.branchPred.BTBHitPct             0.000000                       # BTB Hit Percentage
system.cpu0.branchPred.usedRAS                  11626                       # Number of times the RAS was used to get a target.
system.cpu0.branchPred.RASInCorrect               447                       # Number of incorrect RAS predictions.
system.cpu0.branchPred.indirectLookups         318136                       # Number of indirect predictor lookups.
system.cpu0.branchPred.indirectHits            159777                       # Number of indirect target hits.
system.cpu0.branchPred.indirectMisses          158359                       # Number of indirect misses.
system.cpu0.branchPredindirectMispredicted         4561                       # Number of mispredicted indirect branches.
system.cpu_voltage_domain.voltage                   1                       # Voltage in Volts
system.cpu0.clk_domain.clock                      500                       # Clock period in ticks
system.cpu0.dtb.walker.pwrStateResidencyTicks::UNDEFINED   1588942500                       # Cumulative time (in ticks) in various power states
system.cpu0.apic_clk_domain.clock                8000                       # Clock period in ticks
system.cpu0.interrupts.pwrStateResidencyTicks::UNDEFINED   1588942500                       # Cumulative time (in ticks) in various power states
system.cpu0.itb.walker.pwrStateResidencyTicks::UNDEFINED   1588942500                       # Cumulative time (in ticks) in various power states
system.cpu0.workload.num_syscalls                9402                       # Number of system calls
system.cpu0.pwrStateResidencyTicks::ON     1588942500                       # Cumulative time (in ticks) in various power states
system.cpu0.numCycles                         1863289                       # number of cpu cycles simulated
system.cpu0.numWorkItemsStarted                     0                       # number of work items this cpu started
system.cpu0.numWorkItemsCompleted                   0                       # number of work items this cpu completed
system.cpu0.fetch.icacheStallCycles            143311                       # Number of cycles fetch is stalled on an Icache miss
system.cpu0.fetch.Insts                       1173734                       # Number of instructions fetch has processed
system.cpu0.fetch.Branches                     352248                       # Number of branches that fetch encountered
system.cpu0.fetch.predictedBranches            171403                       # Number of branches that fetch has predicted taken
system.cpu0.fetch.Cycles                      1606297                       # Number of cycles fetch has run and was not squashing or blocked
system.cpu0.fetch.SquashCycles                  17331                       # Number of cycles fetch has spent squashing
system.cpu0.fetch.MiscStallCycles               12539                       # Number of cycles fetch has spent waiting on interrupts, or bad addresses, or out of MSHRs
system.cpu0.fetch.NoActiveThreadStallCycles           10                       # Number of stall cycles due to no active thread to fetch from
system.cpu0.fetch.PendingTrapStallCycles          596                       # Number of stall cycles due to pending traps
system.cpu0.fetch.PendingQuiesceStallCycles           13                       # Number of stall cycles due to pending quiesce instructions
system.cpu0.fetch.IcacheWaitRetryStallCycles         7358                       # Number of stall cycles due to full MSHR
system.cpu0.fetch.CacheLines                   114747                       # Number of cache lines fetched
system.cpu0.fetch.IcacheSquashes                 2596                       # Number of outstanding Icache misses that were squashed
system.cpu0.fetch.rateDist::samples           1778789                       # Number of instructions fetched each cycle (Total)
system.cpu0.fetch.rateDist::mean             1.294863                       # Number of instructions fetched each cycle (Total)
system.cpu0.fetch.rateDist::stdev            2.678481                       # Number of instructions fetched each cycle (Total)
system.cpu0.fetch.rateDist::underflows              0      0.00%      0.00% # Number of instructions fetched each cycle (Total)
system.cpu0.fetch.rateDist::0                 1391733     78.24%     78.24% # Number of instructions fetched each cycle (Total)
system.cpu0.fetch.rateDist::1                   17659      0.99%     79.23% # Number of instructions fetched each cycle (Total)
system.cpu0.fetch.rateDist::2                   13073      0.73%     79.97% # Number of instructions fetched each cycle (Total)
system.cpu0.fetch.rateDist::3                   22247      1.25%     81.22% # Number of instructions fetched each cycle (Total)
system.cpu0.fetch.rateDist::4                  100911      5.67%     86.89% # Number of instructions fetched each cycle (Total)
system.cpu0.fetch.rateDist::5                    8029      0.45%     87.34% # Number of instructions fetched each cycle (Total)
system.cpu0.fetch.rateDist::6                   15914      0.89%     88.24% # Number of instructions fetched each cycle (Total)
system.cpu0.fetch.rateDist::7                   20315      1.14%     89.38% # Number of instructions fetched each cycle (Total)
system.cpu0.fetch.rateDist::8                  188908     10.62%    100.00% # Number of instructions fetched each cycle (Total)
system.cpu0.fetch.rateDist::overflows               0      0.00%    100.00% # Number of instructions fetched each cycle (Total)
system.cpu0.fetch.rateDist::min_value               0                       # Number of instructions fetched each cycle (Total)
system.cpu0.fetch.rateDist::max_value               8                       # Number of instructions fetched each cycle (Total)
system.cpu0.fetch.rateDist::total             1778789                       # Number of instructions fetched each cycle (Total)
system.cpu0.fetch.branchRate                 0.189046                       # Number of branch fetches per cycle
system.cpu0.fetch.rate                       0.629926                       # Number of inst fetches per cycle
system.cpu0.decode.IdleCycles                  137084                       # Number of cycles decode is idle
system.cpu0.decode.BlockedCycles              1333487                       # Number of cycles decode is blocked
system.cpu0.decode.RunCycles                   135407                       # Number of cycles decode is running
system.cpu0.decode.UnblockCycles               164136                       # Number of cycles decode is unblocking
system.cpu0.decode.SquashCycles                  8665                       # Number of cycles decode is squashing
system.cpu0.decode.DecodedInsts               2217054                       # Number of instructions handled by decode
system.cpu0.rename.SquashCycles                  8665                       # Number of cycles rename is squashing
system.cpu0.rename.IdleCycles                  168778                       # Number of cycles rename is idle
system.cpu0.rename.BlockCycles                 433269                       # Number of cycles rename is blocking
system.cpu0.rename.serializeStallCycles        641986                       # count of cycles rename stalled for serializing inst
system.cpu0.rename.RunCycles                   190467                       # Number of cycles rename is running
system.cpu0.rename.UnblockCycles               335614                       # Number of cycles rename is unblocking
system.cpu0.rename.RenamedInsts               2175265                       # Number of instructions processed by rename
system.cpu0.rename.ROBFullEvents               175525                       # Number of times rename has blocked due to ROB full
system.cpu0.rename.IQFullEvents                 16160                       # Number of times rename has blocked due to IQ full
system.cpu0.rename.LQFullEvents                 67995                       # Number of times rename has blocked due to LQ full
system.cpu0.rename.SQFullEvents                 31612                       # Number of times rename has blocked due to SQ full
system.cpu0.rename.RenamedOperands            2519564                       # Number of destination operands rename has renamed
system.cpu0.rename.RenameLookups              5023941                       # Number of register rename lookups that rename has made
system.cpu0.rename.int_rename_lookups         2607042                       # Number of integer rename lookups
system.cpu0.rename.fp_rename_lookups            18074                       # Number of floating rename lookups
system.cpu0.rename.CommittedMaps              2011050                       # Number of HB maps that are committed
system.cpu0.rename.UndoneMaps                  508514                       # Number of HB maps that are undone due to squashing
system.cpu0.rename.serializingInsts              9438                       # count of serializing insts renamed
system.cpu0.rename.tempSerializingInsts          9441                       # count of temporary serializing insts renamed
system.cpu0.rename.skidInsts                  1012617                       # count of insts added to the skid buffer
system.cpu0.memDep0.insertedLoads              313523                       # Number of loads inserted to the mem dependence unit.
system.cpu0.memDep0.insertedStores              31642                       # Number of stores inserted to the mem dependence unit.
system.cpu0.memDep0.conflictingLoads             2907                       # Number of conflicting loads.
system.cpu0.memDep0.conflictingStores             607                       # Number of conflicting stores.
system.cpu0.iq.iqInstsAdded                   2091082                       # Number of instructions added to the IQ (excludes non-spec)
system.cpu0.iq.iqNonSpecInstsAdded               9474                       # Number of non-speculative instructions added to the IQ
system.cpu0.iq.iqInstsIssued                  2097191                       # Number of instructions issued
system.cpu0.iq.iqSquashedInstsIssued             6786                       # Number of squashed instructions issued
system.cpu0.iq.iqSquashedInstsExamined         336783                       # Number of squashed instructions iterated over during squash; mainly for profiling
system.cpu0.iq.iqSquashedOperandsExamined       512413                       # Number of squashed operands that are examined and possibly removed from graph
system.cpu0.iq.iqSquashedNonSpecRemoved            72                       # Number of squashed non-spec instructions that were removed
system.cpu0.iq.issued_per_cycle::samples      1778789                       # Number of insts issued each cycle
system.cpu0.iq.issued_per_cycle::mean        1.178999                       # Number of insts issued each cycle
system.cpu0.iq.issued_per_cycle::stdev       1.786044                       # Number of insts issued each cycle
system.cpu0.iq.issued_per_cycle::underflows            0      0.00%      0.00% # Number of insts issued each cycle
system.cpu0.iq.issued_per_cycle::0            1011629     56.87%     56.87% # Number of insts issued each cycle
system.cpu0.iq.issued_per_cycle::1             242076     13.61%     70.48% # Number of insts issued each cycle
system.cpu0.iq.issued_per_cycle::2             161784      9.10%     79.58% # Number of insts issued each cycle
system.cpu0.iq.issued_per_cycle::3             162319      9.13%     88.70% # Number of insts issued each cycle
system.cpu0.iq.issued_per_cycle::4              86810      4.88%     93.58% # Number of insts issued each cycle
system.cpu0.iq.issued_per_cycle::5              47160      2.65%     96.23% # Number of insts issued each cycle
system.cpu0.iq.issued_per_cycle::6              29080      1.63%     97.87% # Number of insts issued each cycle
system.cpu0.iq.issued_per_cycle::7              16378      0.92%     98.79% # Number of insts issued each cycle
system.cpu0.iq.issued_per_cycle::8              21553      1.21%    100.00% # Number of insts issued each cycle
system.cpu0.iq.issued_per_cycle::overflows            0      0.00%    100.00% # Number of insts issued each cycle
system.cpu0.iq.issued_per_cycle::min_value            0                       # Number of insts issued each cycle
system.cpu0.iq.issued_per_cycle::max_value            8                       # Number of insts issued each cycle
system.cpu0.iq.issued_per_cycle::total        1778789                       # Number of insts issued each cycle
system.cpu0.iq.fu_full::No_OpClass                  0      0.00%      0.00% # attempts to use FU when none available
system.cpu0.iq.fu_full::IntAlu                   5806     25.15%     25.15% # attempts to use FU when none available
system.cpu0.iq.fu_full::IntMult                     0      0.00%     25.15% # attempts to use FU when none available
system.cpu0.iq.fu_full::IntDiv                      0      0.00%     25.15% # attempts to use FU when none available
system.cpu0.iq.fu_full::FloatAdd                   52      0.23%     25.38% # attempts to use FU when none available
system.cpu0.iq.fu_full::FloatCmp                    0      0.00%     25.38% # attempts to use FU when none available
system.cpu0.iq.fu_full::FloatCvt                    0      0.00%     25.38% # attempts to use FU when none available
system.cpu0.iq.fu_full::FloatMult                   0      0.00%     25.38% # attempts to use FU when none available
system.cpu0.iq.fu_full::FloatMultAcc                0      0.00%     25.38% # attempts to use FU when none available
system.cpu0.iq.fu_full::FloatDiv                    0      0.00%     25.38% # attempts to use FU when none available
system.cpu0.iq.fu_full::FloatMisc                   0      0.00%     25.38% # attempts to use FU when none available
system.cpu0.iq.fu_full::FloatSqrt                   0      0.00%     25.38% # attempts to use FU when none available
system.cpu0.iq.fu_full::SimdAdd                     0      0.00%     25.38% # attempts to use FU when none available
system.cpu0.iq.fu_full::SimdAddAcc                  0      0.00%     25.38% # attempts to use FU when none available
system.cpu0.iq.fu_full::SimdAlu                     0      0.00%     25.38% # attempts to use FU when none available
system.cpu0.iq.fu_full::SimdCmp                     0      0.00%     25.38% # attempts to use FU when none available
system.cpu0.iq.fu_full::SimdCvt                     0      0.00%     25.38% # attempts to use FU when none available
system.cpu0.iq.fu_full::SimdMisc                    0      0.00%     25.38% # attempts to use FU when none available
system.cpu0.iq.fu_full::SimdMult                    0      0.00%     25.38% # attempts to use FU when none available
system.cpu0.iq.fu_full::SimdMultAcc                 0      0.00%     25.38% # attempts to use FU when none available
system.cpu0.iq.fu_full::SimdShift                   0      0.00%     25.38% # attempts to use FU when none available
system.cpu0.iq.fu_full::SimdShiftAcc                0      0.00%     25.38% # attempts to use FU when none available
system.cpu0.iq.fu_full::SimdSqrt                    0      0.00%     25.38% # attempts to use FU when none available
system.cpu0.iq.fu_full::SimdFloatAdd                0      0.00%     25.38% # attempts to use FU when none available
system.cpu0.iq.fu_full::SimdFloatAlu                0      0.00%     25.38% # attempts to use FU when none available
system.cpu0.iq.fu_full::SimdFloatCmp                0      0.00%     25.38% # attempts to use FU when none available
system.cpu0.iq.fu_full::SimdFloatCvt                0      0.00%     25.38% # attempts to use FU when none available
system.cpu0.iq.fu_full::SimdFloatDiv                0      0.00%     25.38% # attempts to use FU when none available
system.cpu0.iq.fu_full::SimdFloatMisc               0      0.00%     25.38% # attempts to use FU when none available
system.cpu0.iq.fu_full::SimdFloatMult               0      0.00%     25.38% # attempts to use FU when none available
system.cpu0.iq.fu_full::SimdFloatMultAcc            0      0.00%     25.38% # attempts to use FU when none available
system.cpu0.iq.fu_full::SimdFloatSqrt               0      0.00%     25.38% # attempts to use FU when none available
system.cpu0.iq.fu_full::MemRead                 16330     70.74%     96.12% # attempts to use FU when none available
system.cpu0.iq.fu_full::MemWrite                  751      3.25%     99.38% # attempts to use FU when none available
system.cpu0.iq.fu_full::FloatMemRead              100      0.43%     99.81% # attempts to use FU when none available
system.cpu0.iq.fu_full::FloatMemWrite              44      0.19%    100.00% # attempts to use FU when none available
system.cpu0.iq.fu_full::IprAccess                   0      0.00%    100.00% # attempts to use FU when none available
system.cpu0.iq.fu_full::InstPrefetch                0      0.00%    100.00% # attempts to use FU when none available
system.cpu0.iq.FU_type_0::No_OpClass             4470      0.21%      0.21% # Type of FU issued
system.cpu0.iq.FU_type_0::IntAlu              1640523     78.22%     78.44% # Type of FU issued
system.cpu0.iq.FU_type_0::IntMult                5065      0.24%     78.68% # Type of FU issued
system.cpu0.iq.FU_type_0::IntDiv                 3020      0.14%     78.82% # Type of FU issued
system.cpu0.iq.FU_type_0::FloatAdd               4241      0.20%     79.03% # Type of FU issued
system.cpu0.iq.FU_type_0::FloatCmp                  0      0.00%     79.03% # Type of FU issued
system.cpu0.iq.FU_type_0::FloatCvt                  0      0.00%     79.03% # Type of FU issued
system.cpu0.iq.FU_type_0::FloatMult                 0      0.00%     79.03% # Type of FU issued
system.cpu0.iq.FU_type_0::FloatMultAcc              0      0.00%     79.03% # Type of FU issued
system.cpu0.iq.FU_type_0::FloatDiv                  0      0.00%     79.03% # Type of FU issued
system.cpu0.iq.FU_type_0::FloatMisc                 0      0.00%     79.03% # Type of FU issued
system.cpu0.iq.FU_type_0::FloatSqrt                 0      0.00%     79.03% # Type of FU issued
system.cpu0.iq.FU_type_0::SimdAdd                   0      0.00%     79.03% # Type of FU issued
system.cpu0.iq.FU_type_0::SimdAddAcc                0      0.00%     79.03% # Type of FU issued
system.cpu0.iq.FU_type_0::SimdAlu                   0      0.00%     79.03% # Type of FU issued
system.cpu0.iq.FU_type_0::SimdCmp                   0      0.00%     79.03% # Type of FU issued
system.cpu0.iq.FU_type_0::SimdCvt                   0      0.00%     79.03% # Type of FU issued
system.cpu0.iq.FU_type_0::SimdMisc                  0      0.00%     79.03% # Type of FU issued
system.cpu0.iq.FU_type_0::SimdMult                  0      0.00%     79.03% # Type of FU issued
system.cpu0.iq.FU_type_0::SimdMultAcc               0      0.00%     79.03% # Type of FU issued
system.cpu0.iq.FU_type_0::SimdShift                 0      0.00%     79.03% # Type of FU issued
system.cpu0.iq.FU_type_0::SimdShiftAcc              0      0.00%     79.03% # Type of FU issued
system.cpu0.iq.FU_type_0::SimdSqrt                  0      0.00%     79.03% # Type of FU issued
system.cpu0.iq.FU_type_0::SimdFloatAdd              0      0.00%     79.03% # Type of FU issued
system.cpu0.iq.FU_type_0::SimdFloatAlu              0      0.00%     79.03% # Type of FU issued
system.cpu0.iq.FU_type_0::SimdFloatCmp              0      0.00%     79.03% # Type of FU issued
system.cpu0.iq.FU_type_0::SimdFloatCvt              0      0.00%     79.03% # Type of FU issued
system.cpu0.iq.FU_type_0::SimdFloatDiv              0      0.00%     79.03% # Type of FU issued
system.cpu0.iq.FU_type_0::SimdFloatMisc             0      0.00%     79.03% # Type of FU issued
system.cpu0.iq.FU_type_0::SimdFloatMult             0      0.00%     79.03% # Type of FU issued
system.cpu0.iq.FU_type_0::SimdFloatMultAcc            0      0.00%     79.03% # Type of FU issued
system.cpu0.iq.FU_type_0::SimdFloatSqrt             0      0.00%     79.03% # Type of FU issued
system.cpu0.iq.FU_type_0::MemRead              409232     19.51%     98.54% # Type of FU issued
system.cpu0.iq.FU_type_0::MemWrite              26535      1.27%     99.80% # Type of FU issued
system.cpu0.iq.FU_type_0::FloatMemRead           3673      0.18%     99.98% # Type of FU issued
system.cpu0.iq.FU_type_0::FloatMemWrite           432      0.02%    100.00% # Type of FU issued
system.cpu0.iq.FU_type_0::IprAccess                 0      0.00%    100.00% # Type of FU issued
system.cpu0.iq.FU_type_0::InstPrefetch              0      0.00%    100.00% # Type of FU issued
system.cpu0.iq.FU_type_0::total               2097191                       # Type of FU issued
system.cpu0.iq.rate                          1.125532                       # Inst issue rate
system.cpu0.iq.fu_busy_cnt                      23083                       # FU busy when requested
system.cpu0.iq.fu_busy_rate                  0.011007                       # FU busy rate (busy events/executed inst)
system.cpu0.iq.int_inst_queue_reads           5985634                       # Number of integer instruction queue reads
system.cpu0.iq.int_inst_queue_writes          2421382                       # Number of integer instruction queue writes
system.cpu0.iq.int_inst_queue_wakeup_accesses      1948300                       # Number of integer instruction queue wakeup accesses
system.cpu0.iq.fp_inst_queue_reads              17406                       # Number of floating instruction queue reads
system.cpu0.iq.fp_inst_queue_writes             16082                       # Number of floating instruction queue writes
system.cpu0.iq.fp_inst_queue_wakeup_accesses         6174                       # Number of floating instruction queue wakeup accesses
system.cpu0.iq.int_alu_accesses               2107127                       # Number of integer alu accesses
system.cpu0.iq.fp_alu_accesses                   8677                       # Number of floating point alu accesses
system.cpu0.iew.lsq.thread0.forwLoads            3946                       # Number of loads that had data forwarded from stores
system.cpu0.iew.lsq.thread0.invAddrLoads            0                       # Number of loads ignored due to an invalid address
system.cpu0.iew.lsq.thread0.squashedLoads        46633                       # Number of loads squashed
system.cpu0.iew.lsq.thread0.ignoredResponses           32                       # Number of memory responses ignored because the instruction is squashed
system.cpu0.iew.lsq.thread0.memOrderViolation          144                       # Number of memory ordering violations
system.cpu0.iew.lsq.thread0.squashedStores        10413                       # Number of stores squashed
system.cpu0.iew.lsq.thread0.invAddrSwpfs            0                       # Number of software prefetches ignored due to an invalid address
system.cpu0.iew.lsq.thread0.blockedLoads            0                       # Number of blocked loads due to partial load-store forwarding
system.cpu0.iew.lsq.thread0.rescheduledLoads            7                       # Number of loads that were rescheduled
system.cpu0.iew.lsq.thread0.cacheBlocked       112497                       # Number of times an access to memory failed due to the cache being blocked
system.cpu0.iew.iewIdleCycles                       0                       # Number of cycles IEW is idle
system.cpu0.iew.iewSquashCycles                  8665                       # Number of cycles IEW is squashing
system.cpu0.iew.iewBlockCycles                 115451                       # Number of cycles IEW is blocking
system.cpu0.iew.iewUnblockCycles                 5348                       # Number of cycles IEW is unblocking
system.cpu0.iew.iewDispatchedInsts            2100556                       # Number of instructions dispatched to IQ
system.cpu0.iew.iewDispSquashedInsts             2224                       # Number of squashed instructions skipped by dispatch
system.cpu0.iew.iewDispLoadInsts               313523                       # Number of dispatched load instructions
system.cpu0.iew.iewDispStoreInsts               31642                       # Number of dispatched store instructions
system.cpu0.iew.iewDispNonSpecInsts              9442                       # Number of dispatched non-speculative instructions
system.cpu0.iew.iewIQFullEvents                   536                       # Number of times the IQ has become full, causing a stall
system.cpu0.iew.iewLSQFullEvents                 4417                       # Number of times the LSQ has become full, causing a stall
system.cpu0.iew.memOrderViolationEvents           144                       # Number of memory order violations
system.cpu0.iew.predictedTakenIncorrect          1942                       # Number of branches that were predicted taken incorrectly
system.cpu0.iew.predictedNotTakenIncorrect         9044                       # Number of branches that were predicted not taken incorrectly
system.cpu0.iew.branchMispredicts               10986                       # Number of branch mispredicts detected at execute
system.cpu0.iew.iewExecutedInsts              2076326                       # Number of executed instructions
system.cpu0.iew.iewExecLoadInsts               406545                       # Number of load instructions executed
system.cpu0.iew.iewExecSquashedInsts            20865                       # Number of squashed instructions skipped in execute
system.cpu0.iew.exec_swp                            0                       # number of swp insts executed
system.cpu0.iew.exec_nop                            0                       # number of nop insts executed
system.cpu0.iew.exec_refs                      432495                       # number of memory reference insts executed
system.cpu0.iew.exec_branches                  300972                       # Number of branches executed
system.cpu0.iew.exec_stores                     25950                       # Number of stores executed
system.cpu0.iew.exec_rate                    1.114334                       # Inst execution rate
system.cpu0.iew.wb_sent                       1959393                       # cumulative count of insts sent to commit
system.cpu0.iew.wb_count                      1954474                       # cumulative count of insts written-back
system.cpu0.iew.wb_producers                  1429018                       # num instructions producing a value
system.cpu0.iew.wb_consumers                  2091721                       # num instructions consuming a value
system.cpu0.iew.wb_rate                      1.048938                       # insts written-back per cycle
system.cpu0.iew.wb_fanout                    0.683178                       # average fanout of values written-back
system.cpu0.commit.commitSquashedInsts         336807                       # The number of squashed insts skipped by commit
system.cpu0.commit.commitNonSpecStalls           9402                       # The number of times commit has been forced to stall to communicate backwards
system.cpu0.commit.branchMispredicts             8557                       # The number of times a branch was mispredicted
system.cpu0.commit.committed_per_cycle::samples      1728095                       # Number of insts commited each cycle
system.cpu0.commit.committed_per_cycle::mean     1.020646                       # Number of insts commited each cycle
system.cpu0.commit.committed_per_cycle::stdev     2.236220                       # Number of insts commited each cycle
system.cpu0.commit.committed_per_cycle::underflows            0      0.00%      0.00% # Number of insts commited each cycle
system.cpu0.commit.committed_per_cycle::0      1263163     73.10%     73.10% # Number of insts commited each cycle
system.cpu0.commit.committed_per_cycle::1       157221      9.10%     82.19% # Number of insts commited each cycle
system.cpu0.commit.committed_per_cycle::2        24134      1.40%     83.59% # Number of insts commited each cycle
system.cpu0.commit.committed_per_cycle::3       124384      7.20%     90.79% # Number of insts commited each cycle
system.cpu0.commit.committed_per_cycle::4        13505      0.78%     91.57% # Number of insts commited each cycle
system.cpu0.commit.committed_per_cycle::5         5319      0.31%     91.88% # Number of insts commited each cycle
system.cpu0.commit.committed_per_cycle::6         6236      0.36%     92.24% # Number of insts commited each cycle
system.cpu0.commit.committed_per_cycle::7         5963      0.35%     92.58% # Number of insts commited each cycle
system.cpu0.commit.committed_per_cycle::8       128170      7.42%    100.00% # Number of insts commited each cycle
system.cpu0.commit.committed_per_cycle::overflows            0      0.00%    100.00% # Number of insts commited each cycle
system.cpu0.commit.committed_per_cycle::min_value            0                       # Number of insts commited each cycle
system.cpu0.commit.committed_per_cycle::max_value            8                       # Number of insts commited each cycle
system.cpu0.commit.committed_per_cycle::total      1728095                       # Number of insts commited each cycle
system.cpu0.commit.committedInsts              889141                       # Number of instructions committed
system.cpu0.commit.committedOps               1763773                       # Number of ops (including micro ops) committed
system.cpu0.commit.swp_count                        0                       # Number of s/w prefetches committed
system.cpu0.commit.refs                        288119                       # Number of memory references committed
system.cpu0.commit.loads                       266890                       # Number of loads committed
system.cpu0.commit.membars                          0                       # Number of memory barriers committed
system.cpu0.commit.branches                    287606                       # Number of branches committed
system.cpu0.commit.fp_insts                      3624                       # Number of committed floating point instructions.
system.cpu0.commit.int_insts                  1760067                       # Number of committed integer instructions.
system.cpu0.commit.function_calls               10068                       # Number of function calls committed.
system.cpu0.commit.op_class_0::No_OpClass         1583      0.09%      0.09% # Class of committed instruction
system.cpu0.commit.op_class_0::IntAlu         1463788     82.99%     83.08% # Class of committed instruction
system.cpu0.commit.op_class_0::IntMult           4969      0.28%     83.36% # Class of committed instruction
system.cpu0.commit.op_class_0::IntDiv            2963      0.17%     83.53% # Class of committed instruction
system.cpu0.commit.op_class_0::FloatAdd          2351      0.13%     83.66% # Class of committed instruction
system.cpu0.commit.op_class_0::FloatCmp             0      0.00%     83.66% # Class of committed instruction
system.cpu0.commit.op_class_0::FloatCvt             0      0.00%     83.66% # Class of committed instruction
system.cpu0.commit.op_class_0::FloatMult            0      0.00%     83.66% # Class of committed instruction
system.cpu0.commit.op_class_0::FloatMultAcc            0      0.00%     83.66% # Class of committed instruction
system.cpu0.commit.op_class_0::FloatDiv             0      0.00%     83.66% # Class of committed instruction
system.cpu0.commit.op_class_0::FloatMisc            0      0.00%     83.66% # Class of committed instruction
system.cpu0.commit.op_class_0::FloatSqrt            0      0.00%     83.66% # Class of committed instruction
system.cpu0.commit.op_class_0::SimdAdd              0      0.00%     83.66% # Class of committed instruction
system.cpu0.commit.op_class_0::SimdAddAcc            0      0.00%     83.66% # Class of committed instruction
system.cpu0.commit.op_class_0::SimdAlu              0      0.00%     83.66% # Class of committed instruction
system.cpu0.commit.op_class_0::SimdCmp              0      0.00%     83.66% # Class of committed instruction
system.cpu0.commit.op_class_0::SimdCvt              0      0.00%     83.66% # Class of committed instruction
system.cpu0.commit.op_class_0::SimdMisc             0      0.00%     83.66% # Class of committed instruction
system.cpu0.commit.op_class_0::SimdMult             0      0.00%     83.66% # Class of committed instruction
system.cpu0.commit.op_class_0::SimdMultAcc            0      0.00%     83.66% # Class of committed instruction
system.cpu0.commit.op_class_0::SimdShift            0      0.00%     83.66% # Class of committed instruction
system.cpu0.commit.op_class_0::SimdShiftAcc            0      0.00%     83.66% # Class of committed instruction
system.cpu0.commit.op_class_0::SimdSqrt             0      0.00%     83.66% # Class of committed instruction
system.cpu0.commit.op_class_0::SimdFloatAdd            0      0.00%     83.66% # Class of committed instruction
system.cpu0.commit.op_class_0::SimdFloatAlu            0      0.00%     83.66% # Class of committed instruction
system.cpu0.commit.op_class_0::SimdFloatCmp            0      0.00%     83.66% # Class of committed instruction
system.cpu0.commit.op_class_0::SimdFloatCvt            0      0.00%     83.66% # Class of committed instruction
system.cpu0.commit.op_class_0::SimdFloatDiv            0      0.00%     83.66% # Class of committed instruction
system.cpu0.commit.op_class_0::SimdFloatMisc            0      0.00%     83.66% # Class of committed instruction
system.cpu0.commit.op_class_0::SimdFloatMult            0      0.00%     83.66% # Class of committed instruction
system.cpu0.commit.op_class_0::SimdFloatMultAcc            0      0.00%     83.66% # Class of committed instruction
system.cpu0.commit.op_class_0::SimdFloatSqrt            0      0.00%     83.66% # Class of committed instruction
system.cpu0.commit.op_class_0::MemRead         266064     15.08%     98.75% # Class of committed instruction
system.cpu0.commit.op_class_0::MemWrite         20845      1.18%     99.93% # Class of committed instruction
system.cpu0.commit.op_class_0::FloatMemRead          826      0.05%     99.98% # Class of committed instruction
system.cpu0.commit.op_class_0::FloatMemWrite          384      0.02%    100.00% # Class of committed instruction
system.cpu0.commit.op_class_0::IprAccess            0      0.00%    100.00% # Class of committed instruction
system.cpu0.commit.op_class_0::InstPrefetch            0      0.00%    100.00% # Class of committed instruction
system.cpu0.commit.op_class_0::total          1763773                       # Class of committed instruction
system.cpu0.commit.bw_lim_events               128170                       # number cycles where commit BW limit reached
system.cpu0.rob.rob_reads                     3700492                       # The number of ROB reads
system.cpu0.rob.rob_writes                    4252510                       # The number of ROB writes
system.cpu0.timesIdled                            767                       # Number of times that the entire CPU went into an idle state and unscheduled itself
system.cpu0.idleCycles                          84500                       # Total number of cycles that the CPU has spent unscheduled due to idling
system.cpu0.committedInsts                     889141                       # Number of Instructions Simulated
system.cpu0.committedOps                      1763773                       # Number of Ops (including micro ops) Simulated
system.cpu0.cpi                              2.095606                       # CPI: Cycles Per Instruction
system.cpu0.cpi_total                        2.095606                       # CPI: Total CPI of All Threads
system.cpu0.ipc                              0.477189                       # IPC: Instructions Per Cycle
system.cpu0.ipc_total                        0.477189                       # IPC: Total IPC of All Threads
system.cpu0.int_regfile_reads                 2451561                       # number of integer regfile reads
system.cpu0.int_regfile_writes                1641596                       # number of integer regfile writes
system.cpu0.fp_regfile_reads                     9116                       # number of floating regfile reads
system.cpu0.fp_regfile_writes                    5357                       # number of floating regfile writes
system.cpu0.cc_regfile_reads                  1074197                       # number of cc regfile reads
system.cpu0.cc_regfile_writes                  606088                       # number of cc regfile writes
system.cpu0.misc_regfile_reads                1142427                       # number of misc regfile reads
system.cpu1.branchPred.lookups                 287256                       # Number of BP lookups
system.cpu1.branchPred.condPredicted           287256                       # Number of conditional branches predicted
system.cpu1.branchPred.condIncorrect             8674                       # Number of conditional branches incorrect
system.cpu1.branchPred.BTBLookups              263143                       # Number of BTB lookups
system.cpu1.branchPred.BTBHits                      0                       # Number of BTB hits
system.cpu1.branchPred.BTBCorrect                   0                       # Number of correct BTB predictions (this stat may not work properly.
system.cpu1.branchPred.BTBHitPct             0.000000                       # BTB Hit Percentage
system.cpu1.branchPred.usedRAS                   2411                       # Number of times the RAS was used to get a target.
system.cpu1.branchPred.RASInCorrect               438                       # Number of incorrect RAS predictions.
system.cpu1.branchPred.indirectLookups         263143                       # Number of indirect predictor lookups.
system.cpu1.branchPred.indirectHits            123210                       # Number of indirect target hits.
system.cpu1.branchPred.indirectMisses          139933                       # Number of indirect misses.
system.cpu1.branchPredindirectMispredicted         4686                       # Number of mispredicted indirect branches.
system.cpu1.clk_domain.clock                      500                       # Clock period in ticks
system.cpu1.dtb.walker.pwrStateResidencyTicks::UNDEFINED   1588942500                       # Cumulative time (in ticks) in various power states
system.cpu1.apic_clk_domain.clock                8000                       # Clock period in ticks
system.cpu1.interrupts.pwrStateResidencyTicks::UNDEFINED   1588942500                       # Cumulative time (in ticks) in various power states
system.cpu1.itb.walker.pwrStateResidencyTicks::UNDEFINED   1588942500                       # Cumulative time (in ticks) in various power states
system.cpu1.workload.num_syscalls                  42                       # Number of system calls
system.cpu1.pwrStateResidencyTicks::ON     1588942500                       # Cumulative time (in ticks) in various power states
system.cpu1.numCycles                         1189834                       # number of cpu cycles simulated
system.cpu1.numWorkItemsStarted                     0                       # number of work items this cpu started
system.cpu1.numWorkItemsCompleted                   0                       # number of work items this cpu completed
system.cpu1.fetch.icacheStallCycles             80844                       # Number of cycles fetch is stalled on an Icache miss
system.cpu1.fetch.Insts                       1019397                       # Number of instructions fetch has processed
system.cpu1.fetch.Branches                     287256                       # Number of branches that fetch encountered
system.cpu1.fetch.predictedBranches            125621                       # Number of branches that fetch has predicted taken
system.cpu1.fetch.Cycles                       999413                       # Number of cycles fetch has run and was not squashing or blocked
system.cpu1.fetch.SquashCycles                  17629                       # Number of cycles fetch has spent squashing
system.cpu1.fetch.TlbCycles                         2                       # Number of cycles fetch has spent waiting for tlb
system.cpu1.fetch.MiscStallCycles               11119                       # Number of cycles fetch has spent waiting on interrupts, or bad addresses, or out of MSHRs
system.cpu1.fetch.NoActiveThreadStallCycles           10                       # Number of stall cycles due to no active thread to fetch from
system.cpu1.fetch.PendingTrapStallCycles          588                       # Number of stall cycles due to pending traps
system.cpu1.fetch.PendingQuiesceStallCycles           13                       # Number of stall cycles due to pending quiesce instructions
system.cpu1.fetch.IcacheWaitRetryStallCycles         7957                       # Number of stall cycles due to full MSHR
system.cpu1.fetch.CacheLines                    52498                       # Number of cache lines fetched
system.cpu1.fetch.IcacheSquashes                 2663                       # Number of outstanding Icache misses that were squashed
system.cpu1.fetch.rateDist::samples           1108760                       # Number of instructions fetched each cycle (Total)
system.cpu1.fetch.rateDist::mean             1.814575                       # Number of instructions fetched each cycle (Total)
system.cpu1.fetch.rateDist::stdev            3.053172                       # Number of instructions fetched each cycle (Total)
system.cpu1.fetch.rateDist::underflows              0      0.00%      0.00% # Number of instructions fetched each cycle (Total)
system.cpu1.fetch.rateDist::0                  784704     70.77%     70.77% # Number of instructions fetched each cycle (Total)
system.cpu1.fetch.rateDist::1                    9085      0.82%     71.59% # Number of instructions fetched each cycle (Total)
system.cpu1.fetch.rateDist::2                    4418      0.40%     71.99% # Number of instructions fetched each cycle (Total)
system.cpu1.fetch.rateDist::3                    8773      0.79%     72.78% # Number of instructions fetched each cycle (Total)
system.cpu1.fetch.rateDist::4                   99878      9.01%     81.79% # Number of instructions fetched each cycle (Total)
system.cpu1.fetch.rateDist::5                    8668      0.78%     82.57% # Number of instructions fetched each cycle (Total)
system.cpu1.fetch.rateDist::6                    7294      0.66%     83.23% # Number of instructions fetched each cycle (Total)
system.cpu1.fetch.rateDist::7                    6448      0.58%     83.81% # Number of instructions fetched each cycle (Total)
system.cpu1.fetch.rateDist::8                  179492     16.19%    100.00% # Number of instructions fetched each cycle (Total)
system.cpu1.fetch.rateDist::overflows               0      0.00%    100.00% # Number of instructions fetched each cycle (Total)
system.cpu1.fetch.rateDist::min_value               0                       # Number of instructions fetched each cycle (Total)
system.cpu1.fetch.rateDist::max_value               8                       # Number of instructions fetched each cycle (Total)
system.cpu1.fetch.rateDist::total             1108760                       # Number of instructions fetched each cycle (Total)
system.cpu1.fetch.branchRate                 0.241425                       # Number of branch fetches per cycle
system.cpu1.fetch.rate                       0.856756                       # Number of inst fetches per cycle
system.cpu1.decode.IdleCycles                  131150                       # Number of cycles decode is idle
system.cpu1.decode.BlockedCycles               716931                       # Number of cycles decode is blocked
system.cpu1.decode.RunCycles                    91528                       # Number of cycles decode is running
system.cpu1.decode.UnblockCycles               160327                       # Number of cycles decode is unblocking
system.cpu1.decode.SquashCycles                  8814                       # Number of cycles decode is squashing
system.cpu1.decode.DecodedInsts               1924827                       # Number of instructions handled by decode
system.cpu1.rename.SquashCycles                  8814                       # Number of cycles rename is squashing
system.cpu1.rename.IdleCycles                  156488                       # Number of cycles rename is idle
system.cpu1.rename.BlockCycles                 447484                       # Number of cycles rename is blocking
system.cpu1.rename.serializeStallCycles          3821                       # count of cycles rename stalled for serializing inst
system.cpu1.rename.RunCycles                   147473                       # Number of cycles rename is running
system.cpu1.rename.UnblockCycles               344670                       # Number of cycles rename is unblocking
system.cpu1.rename.RenamedInsts               1881780                       # Number of instructions processed by rename
system.cpu1.rename.ROBFullEvents               180839                       # Number of times rename has blocked due to ROB full
system.cpu1.rename.IQFullEvents                 27639                       # Number of times rename has blocked due to IQ full
system.cpu1.rename.LQFullEvents                 71147                       # Number of times rename has blocked due to LQ full
system.cpu1.rename.SQFullEvents                 32868                       # Number of times rename has blocked due to SQ full
system.cpu1.rename.RenamedOperands            2267812                       # Number of destination operands rename has renamed
system.cpu1.rename.RenameLookups              4332122                       # Number of register rename lookups that rename has made
system.cpu1.rename.int_rename_lookups         2291388                       # Number of integer rename lookups
system.cpu1.rename.fp_rename_lookups            17535                       # Number of floating rename lookups
system.cpu1.rename.CommittedMaps              1750873                       # Number of HB maps that are committed
system.cpu1.rename.UndoneMaps                  516939                       # Number of HB maps that are undone due to squashing
system.cpu1.rename.serializingInsts                73                       # count of serializing insts renamed
system.cpu1.rename.tempSerializingInsts            75                       # count of temporary serializing insts renamed
system.cpu1.rename.skidInsts                  1006171                       # count of insts added to the skid buffer
system.cpu1.memDep0.insertedLoads              282337                       # Number of loads inserted to the mem dependence unit.
system.cpu1.memDep0.insertedStores              24235                       # Number of stores inserted to the mem dependence unit.
system.cpu1.memDep0.conflictingLoads             7543                       # Number of conflicting loads.
system.cpu1.memDep0.conflictingStores            2071                       # Number of conflicting stores.
system.cpu1.iq.iqInstsAdded                   1806400                       # Number of instructions added to the IQ (excludes non-spec)
system.cpu1.iq.iqNonSpecInstsAdded                126                       # Number of non-speculative instructions added to the IQ
system.cpu1.iq.iqInstsIssued                  1803100                       # Number of instructions issued
system.cpu1.iq.iqSquashedInstsIssued             6693                       # Number of squashed instructions issued
system.cpu1.iq.iqSquashedInstsExamined         341833                       # Number of squashed instructions iterated over during squash; mainly for profiling
system.cpu1.iq.iqSquashedOperandsExamined       518991                       # Number of squashed operands that are examined and possibly removed from graph
system.cpu1.iq.iqSquashedNonSpecRemoved            84                       # Number of squashed non-spec instructions that were removed
system.cpu1.iq.issued_per_cycle::samples      1108760                       # Number of insts issued each cycle
system.cpu1.iq.issued_per_cycle::mean        1.626231                       # Number of insts issued each cycle
system.cpu1.iq.issued_per_cycle::stdev       1.785589                       # Number of insts issued each cycle
system.cpu1.iq.issued_per_cycle::underflows            0      0.00%      0.00% # Number of insts issued each cycle
system.cpu1.iq.issued_per_cycle::0             410182     36.99%     36.99% # Number of insts issued each cycle
system.cpu1.iq.issued_per_cycle::1             225577     20.34%     57.34% # Number of insts issued each cycle
system.cpu1.iq.issued_per_cycle::2             154696     13.95%     71.29% # Number of insts issued each cycle
[...]
system.ruby.L1Cache_Controller.NP.Transient_Local_GETX::total         9481                      
system.ruby.L1Cache_Controller.NP.Transient_Local_GETS |       10440     18.80%     18.80% |       10399     18.72%     37.52% |       10468     18.85%     56.37% |       10435     18.79%     75.16% |       13797     24.84%    100.00%
system.ruby.L1Cache_Controller.NP.Transient_Local_GETS::total        55539                      
system.ruby.L1Cache_Controller.NP.Own_Lock_or_Unlock |         709     19.19%     19.19% |         717     19.40%     38.59% |         720     19.49%     58.08% |         647     17.51%     75.59% |         902     24.41%    100.00%
system.ruby.L1Cache_Controller.NP.Own_Lock_or_Unlock::total         3695                      
system.ruby.L1Cache_Controller.I.Load    |           1     16.67%     16.67% |           1     16.67%     33.33% |           1     16.67%     50.00% |           1     16.67%     66.67% |           2     33.33%    100.00%
system.ruby.L1Cache_Controller.I.Load::total            6                      
system.ruby.L1Cache_Controller.I.Store   |           4     33.33%     33.33% |           2     16.67%     50.00% |           0      0.00%     50.00% |           2     16.67%     66.67% |           4     33.33%    100.00%
system.ruby.L1Cache_Controller.I.Store::total           12                      
system.ruby.L1Cache_Controller.S.Load    |       37808     17.59%     17.59% |        4072      1.89%     19.48% |       98302     45.73%     65.21% |       74771     34.78%     99.99% |          28      0.01%    100.00%
system.ruby.L1Cache_Controller.S.Load::total       214981                      
system.ruby.L1Cache_Controller.S.Ifetch  |       38795     11.51%     11.51% |        1235      0.37%     11.87% |      223944     66.42%     78.29% |       73181     21.71%    100.00% |           0      0.00%    100.00%
system.ruby.L1Cache_Controller.S.Ifetch::total       337155                      
system.ruby.L1Cache_Controller.S.Store   |          53     27.89%     27.89% |          45     23.68%     51.58% |          43     22.63%     74.21% |          49     25.79%    100.00% |           0      0.00%    100.00%
system.ruby.L1Cache_Controller.S.Store::total          190                      
system.ruby.L1Cache_Controller.S.L1_Replacement |         183     23.61%     23.61% |         160     20.65%     44.26% |         195     25.16%     69.42% |         237     30.58%    100.00% |           0      0.00%    100.00%
system.ruby.L1Cache_Controller.S.L1_Replacement::total          775                      
system.ruby.L1Cache_Controller.S.Transient_Local_GETX |           0      0.00%      0.00% |           0      0.00%      0.00% |           0      0.00%      0.00% |           0      0.00%      0.00% |           4    100.00%    100.00%
system.ruby.L1Cache_Controller.S.Transient_Local_GETX::total            4                      
system.ruby.L1Cache_Controller.S.Transient_Local_GETS_Last_Token |           1     25.00%     25.00% |           1     25.00%     50.00% |           1     25.00%     75.00% |           1     25.00%    100.00% |           0      0.00%    100.00%
system.ruby.L1Cache_Controller.S.Transient_Local_GETS_Last_Token::total            4                      
system.ruby.L1Cache_Controller.M.Load    |       17365     23.48%     23.48% |       20698     27.99%     51.47% |       17112     23.14%     74.60% |       17350     23.46%     98.06% |        1434      1.94%    100.00%
system.ruby.L1Cache_Controller.M.Load::total        73959                      
system.ruby.L1Cache_Controller.M.Ifetch  |       74161     17.95%     17.95% |       49483     11.98%     29.93% |      188684     45.68%     75.62% |      100718     24.38%    100.00% |           0      0.00%    100.00%
system.ruby.L1Cache_Controller.M.Ifetch::total       413046                      
system.ruby.L1Cache_Controller.M.Store   |          44     15.71%     15.71% |          46     16.43%     32.14% |          41     14.64%     46.79% |          43     15.36%     62.14% |         106     37.86%    100.00%
system.ruby.L1Cache_Controller.M.Store::total          280                      
system.ruby.L1Cache_Controller.M.L1_Replacement |        1739     25.01%     25.01% |        1805     25.96%     50.97% |        1714     24.65%     75.62% |        1695     24.38%    100.00% |           0      0.00%    100.00%
system.ruby.L1Cache_Controller.M.L1_Replacement::total         6953                      
system.ruby.L1Cache_Controller.M.Transient_Local_GETX |           0      0.00%      0.00% |           0      0.00%      0.00% |           0      0.00%      0.00% |           0      0.00%      0.00% |           2    100.00%    100.00%
system.ruby.L1Cache_Controller.M.Transient_Local_GETX::total            2                      
system.ruby.L1Cache_Controller.M.Persistent_GETX |           0      0.00%      0.00% |           0      0.00%      0.00% |           0      0.00%      0.00% |           0      0.00%      0.00% |          11    100.00%    100.00%
system.ruby.L1Cache_Controller.M.Persistent_GETX::total           11                      
system.ruby.L1Cache_Controller.M.Own_Lock_or_Unlock |         169     23.84%     23.84% |         160     22.57%     46.40% |         170     23.98%     70.38% |         196     27.64%     98.03% |          14      1.97%    100.00%
system.ruby.L1Cache_Controller.M.Own_Lock_or_Unlock::total          709                      
system.ruby.L1Cache_Controller.MM.Load   |      124033     24.42%     24.42% |      120424     23.71%     48.13% |      139108     27.39%     75.52% |      124325     24.48%    100.00% |           0      0.00%    100.00%
system.ruby.L1Cache_Controller.MM.Load::total       507890                      
system.ruby.L1Cache_Controller.MM.Store  |       18951     19.98%     19.98% |       11615     12.25%     32.23% |       35562     37.50%     69.73% |       27107     28.59%     98.32% |        1594      1.68%    100.00%
system.ruby.L1Cache_Controller.MM.Store::total        94829                      
system.ruby.L1Cache_Controller.MM.L1_Replacement |         538     25.28%     25.28% |         530     24.91%     50.19% |         530     24.91%     75.09% |         530     24.91%    100.00% |           0      0.00%    100.00%
system.ruby.L1Cache_Controller.MM.L1_Replacement::total         2128                      
system.ruby.L1Cache_Controller.MM.Transient_Local_GETX |           1     25.00%     25.00% |           1     25.00%     50.00% |           1     25.00%     75.00% |           1     25.00%    100.00% |           0      0.00%    100.00%
system.ruby.L1Cache_Controller.MM.Transient_Local_GETX::total            4                      
system.ruby.L1Cache_Controller.MM.Transient_Local_GETS |          19     18.63%     18.63% |          79     77.45%     96.08% |           0      0.00%     96.08% |           4      3.92%    100.00% |           0      0.00%    100.00%
system.ruby.L1Cache_Controller.MM.Transient_Local_GETS::total          102                      
system.ruby.L1Cache_Controller.MM.Persistent_GETS |           5     27.78%     27.78% |           3     16.67%     44.44% |           2     11.11%     55.56% |           4     22.22%     77.78% |           4     22.22%    100.00%
system.ruby.L1Cache_Controller.MM.Persistent_GETS::total           18                      
system.ruby.L1Cache_Controller.MM.Own_Lock_or_Unlock |          48     21.62%     21.62% |          51     22.97%     44.59% |          39     17.57%     62.16% |          84     37.84%    100.00% |           0      0.00%    100.00%
system.ruby.L1Cache_Controller.MM.Own_Lock_or_Unlock::total          222                      
system.ruby.L1Cache_Controller.M_W.Load  |       11203     25.19%     25.19% |       11193     25.16%     50.35% |       11096     24.95%     75.30% |       10866     24.43%     99.72% |         123      0.28%    100.00%
system.ruby.L1Cache_Controller.M_W.Load::total        44481                      
system.ruby.L1Cache_Controller.M_W.Ifetch |         418     24.90%     24.90% |         415     24.72%     49.61% |         435     25.91%     75.52% |         411     24.48%    100.00% |           0      0.00%    100.00%
system.ruby.L1Cache_Controller.M_W.Ifetch::total         1679                      
system.ruby.L1Cache_Controller.M_W.Store |          12     25.00%     25.00% |          12     25.00%     50.00% |          12     25.00%     75.00% |          12     25.00%    100.00% |           0      0.00%    100.00%
system.ruby.L1Cache_Controller.M_W.Store::total           48                      
system.ruby.L1Cache_Controller.M_W.Transient_Local_GETX |           0      0.00%      0.00% |           0      0.00%      0.00% |           0      0.00%      0.00% |           0      0.00%      0.00% |          11    100.00%    100.00%
system.ruby.L1Cache_Controller.M_W.Transient_Local_GETX::total           11                      
system.ruby.L1Cache_Controller.M_W.Own_Lock_or_Unlock |          22     23.66%     23.66% |          27     29.03%     52.69% |          24     25.81%     78.49% |          20     21.51%    100.00% |           0      0.00%    100.00%
system.ruby.L1Cache_Controller.M_W.Own_Lock_or_Unlock::total           93                      
system.ruby.L1Cache_Controller.M_W.Use_TimeoutNoStarvers |        3039     24.81%     24.81% |        3040     24.82%     49.62% |        3026     24.70%     74.33% |        3026     24.70%     99.03% |         119      0.97%    100.00%
system.ruby.L1Cache_Controller.M_W.Use_TimeoutNoStarvers::total        12250                      
system.ruby.L1Cache_Controller.MM_W.Load |          41     31.30%     31.30% |          28     21.37%     52.67% |          37     28.24%     80.92% |          25     19.08%    100.00% |           0      0.00%    100.00%
system.ruby.L1Cache_Controller.MM_W.Load::total          131                      
system.ruby.L1Cache_Controller.MM_W.Store |        2209     24.51%     24.51% |        2620     29.07%     53.58% |        2095     23.25%     76.83% |        2084     23.12%     99.96% |           4      0.04%    100.00%
system.ruby.L1Cache_Controller.MM_W.Store::total         9012                      
system.ruby.L1Cache_Controller.MM_W.Transient_Local_GETS |           5     29.41%     29.41% |           3     17.65%     47.06% |           1      5.88%     52.94% |           4     23.53%     76.47% |           4     23.53%    100.00%
system.ruby.L1Cache_Controller.MM_W.Transient_Local_GETS::total           17                      
system.ruby.L1Cache_Controller.MM_W.Own_Lock_or_Unlock |           5     16.67%     16.67% |           8     26.67%     43.33% |           9     30.00%     73.33% |           8     26.67%    100.00% |           0      0.00%    100.00%
system.ruby.L1Cache_Controller.MM_W.Own_Lock_or_Unlock::total           30                      
system.ruby.L1Cache_Controller.MM_W.Use_TimeoutNoStarvers |         605     24.95%     24.95% |         653     26.93%     51.88% |         581     23.96%     75.84% |         582     24.00%     99.84% |           4      0.16%    100.00%
system.ruby.L1Cache_Controller.MM_W.Use_TimeoutNoStarvers::total         2425                      
system.ruby.L1Cache_Controller.IM.Data_All_Tokens |         540     24.69%     24.69% |         596     27.25%     51.94% |         526     24.05%     75.99% |         521     23.82%     99.82% |           4      0.18%    100.00%
system.ruby.L1Cache_Controller.IM.Data_All_Tokens::total         2187                      
system.ruby.L1Cache_Controller.IM.Transient_Local_GETS |           0      0.00%      0.00% |           0      0.00%      0.00% |           1    100.00%    100.00% |           0      0.00%    100.00% |           0      0.00%    100.00%
system.ruby.L1Cache_Controller.IM.Transient_Local_GETS::total            1                      
system.ruby.L1Cache_Controller.IM.Own_Lock_or_Unlock |          42     22.11%     22.11% |          43     22.63%     44.74% |          29     15.26%     60.00% |          76     40.00%    100.00% |           0      0.00%    100.00%
system.ruby.L1Cache_Controller.IM.Own_Lock_or_Unlock::total          190                      
system.ruby.L1Cache_Controller.IM.Request_Timeout |         167     18.02%     18.02% |         222     23.95%     41.96% |         248     26.75%     68.72% |         290     31.28%    100.00% |           0      0.00%    100.00%
system.ruby.L1Cache_Controller.IM.Request_Timeout::total          927                      
system.ruby.L1Cache_Controller.SM.Data_All_Tokens |          53     27.89%     27.89% |          45     23.68%     51.58% |          43     22.63%     74.21% |          49     25.79%    100.00% |           0      0.00%    100.00%
system.ruby.L1Cache_Controller.SM.Data_All_Tokens::total          190                      
system.ruby.L1Cache_Controller.SM.Ack    |           1     25.00%     25.00% |           1     25.00%     50.00% |           1     25.00%     75.00% |           1     25.00%    100.00% |           0      0.00%    100.00%
system.ruby.L1Cache_Controller.SM.Ack::total            4                      
system.ruby.L1Cache_Controller.IS.Data_Shared |         401     24.68%     24.68% |         382     23.51%     48.18% |         404     24.86%     73.05% |         434     26.71%     99.75% |           4      0.25%    100.00%
system.ruby.L1Cache_Controller.IS.Data_Shared::total         1625                      
system.ruby.L1Cache_Controller.IS.Data_All_Tokens |        3051     24.81%     24.81% |        3052     24.82%     49.62% |        3039     24.71%     74.33% |        3038     24.70%     99.03% |         119      0.97%    100.00%
system.ruby.L1Cache_Controller.IS.Data_All_Tokens::total        12299                      
system.ruby.L1Cache_Controller.IS.Own_Lock_or_Unlock |         148     23.95%     23.95% |         133     21.52%     45.47% |         147     23.79%     69.26% |         176     28.48%     97.73% |          14      2.27%    100.00%
system.ruby.L1Cache_Controller.IS.Own_Lock_or_Unlock::total          618                      
system.ruby.L1Cache_Controller.IS.Request_Timeout |        1166     22.92%     22.92% |        1222     24.02%     46.94% |        1229     24.16%     71.10% |        1456     28.62%     99.72% |          14      0.28%    100.00%
system.ruby.L1Cache_Controller.IS.Request_Timeout::total         5087                      
system.ruby.L1Cache_Controller.I_L.Load  |           0      0.00%      0.00% |           0      0.00%      0.00% |           0      0.00%      0.00% |           0      0.00%      0.00% |          11    100.00%    100.00%
system.ruby.L1Cache_Controller.I_L.Load::total           11                      
system.ruby.L1Cache_Controller.I_L.Store |           0      0.00%      0.00% |           0      0.00%      0.00% |           1     50.00%     50.00% |           1     50.00%    100.00% |           0      0.00%    100.00%
system.ruby.L1Cache_Controller.I_L.Store::total            2                      
system.ruby.L1Cache_Controller.I_L.Transient_Local_GETX |           2     33.33%     33.33% |           2     33.33%     66.67% |           1     16.67%     83.33% |           1     16.67%    100.00% |           0      0.00%    100.00%
system.ruby.L1Cache_Controller.I_L.Transient_Local_GETX::total            6                      
system.ruby.L1Cache_Controller.I_L.Transient_Local_GETS |           7     21.21%     21.21% |           8     24.24%     45.45% |          10     30.30%     75.76% |           8     24.24%    100.00% |           0      0.00%    100.00%
system.ruby.L1Cache_Controller.I_L.Transient_Local_GETS::total           33                      
system.ruby.L1Cache_Controller.I_L.Persistent_GETX |         173     19.91%     19.91% |         169     19.45%     39.36% |         182     20.94%     60.30% |         136     15.65%     75.95% |         209     24.05%    100.00%
system.ruby.L1Cache_Controller.I_L.Persistent_GETX::total          869                      
system.ruby.L1Cache_Controller.I_L.Persistent_GETS |         536     18.97%     18.97% |         548     19.39%     38.36% |         538     19.04%     57.40% |         511     18.08%     75.48% |         693     24.52%    100.00%
system.ruby.L1Cache_Controller.I_L.Persistent_GETS::total         2826                      
system.ruby.L1Cache_Controller.I_L.Own_Lock_or_Unlock |           5     31.25%     31.25% |           3     18.75%     50.00% |           1      6.25%     56.25% |           3     18.75%     75.00% |           4     25.00%    100.00%
system.ruby.L1Cache_Controller.I_L.Own_Lock_or_Unlock::total           16                      
system.ruby.L1Cache_Controller.IM_L.Own_Lock_or_Unlock |           0      0.00%      0.00% |           0      0.00%      0.00% |           1     50.00%     50.00% |           1     50.00%    100.00% |           0      0.00%    100.00%
system.ruby.L1Cache_Controller.IM_L.Own_Lock_or_Unlock::total            2                      
system.ruby.L1Cache_Controller.IS_L.Own_Lock_or_Unlock |           0      0.00%      0.00% |           0      0.00%      0.00% |           0      0.00%      0.00% |           0      0.00%      0.00% |          11    100.00%    100.00%
system.ruby.L1Cache_Controller.IS_L.Own_Lock_or_Unlock::total           11                      
system.ruby.L2Cache_Controller.L1_GETS          13924      0.00%      0.00%
system.ruby.L2Cache_Controller.L1_GETX           2377      0.00%      0.00%
system.ruby.L2Cache_Controller.L1_INV             141      0.00%      0.00%
system.ruby.L2Cache_Controller.Writeback_Shared_Data            1      0.00%      0.00%
system.ruby.L2Cache_Controller.Writeback_All_Tokens         9855      0.00%      0.00%
system.ruby.L2Cache_Controller.Persistent_GETX          220      0.00%      0.00%
system.ruby.L2Cache_Controller.Persistent_GETS          711      0.00%      0.00%
system.ruby.L2Cache_Controller.Own_Lock_or_Unlock          931      0.00%      0.00%
system.ruby.L2Cache_Controller.NP.L1_GETS        12284      0.00%      0.00%
system.ruby.L2Cache_Controller.NP.L1_GETX         1989      0.00%      0.00%
system.ruby.L2Cache_Controller.NP.L1_INV          104      0.00%      0.00%
system.ruby.L2Cache_Controller.NP.Writeback_All_Tokens         8885      0.00%      0.00%
system.ruby.L2Cache_Controller.NP.Own_Lock_or_Unlock          927      0.00%      0.00%
system.ruby.L2Cache_Controller.I.L1_GETS            4      0.00%      0.00%
system.ruby.L2Cache_Controller.I.L1_GETX            4      0.00%      0.00%
system.ruby.L2Cache_Controller.I.L1_INV             8      0.00%      0.00%
system.ruby.L2Cache_Controller.I.Writeback_All_Tokens          196      0.00%      0.00%
system.ruby.L2Cache_Controller.I.Persistent_GETS            4      0.00%      0.00%
system.ruby.L2Cache_Controller.O.L1_GETS            5      0.00%      0.00%
system.ruby.L2Cache_Controller.O.L1_GETX          190      0.00%      0.00%
system.ruby.L2Cache_Controller.O.Writeback_Shared_Data            1      0.00%      0.00%
system.ruby.L2Cache_Controller.O.Writeback_All_Tokens          774      0.00%      0.00%
system.ruby.L2Cache_Controller.M.L1_GETS         1620      0.00%      0.00%
system.ruby.L2Cache_Controller.M.L1_GETX          192      0.00%      0.00%
system.ruby.L2Cache_Controller.I_L.L1_GETS           11      0.00%      0.00%
system.ruby.L2Cache_Controller.I_L.L1_GETX            2      0.00%      0.00%
system.ruby.L2Cache_Controller.I_L.L1_INV           29      0.00%      0.00%
system.ruby.L2Cache_Controller.I_L.Persistent_GETX          220      0.00%      0.00%
system.ruby.L2Cache_Controller.I_L.Persistent_GETS          707      0.00%      0.00%
system.ruby.L2Cache_Controller.I_L.Own_Lock_or_Unlock            4      0.00%      0.00%

---------- End Simulation Statistics   ----------
