
---------- Begin Simulation Statistics ----------
sim_seconds                                  0.022523                       # Number of seconds simulated
sim_ticks                                 22522812000                       # Number of ticks simulated
final_tick                                22522812000                       # Number of ticks from beginning of simulation (restored from checkpoints and never reset)
sim_freq                                 1000000000000                       # Frequency of simulated ticks
host_inst_rate                                  52101                       # Simulator instruction rate (inst/s)
host_op_rate                                   103596                       # Simulator op (including micro ops) rate (op/s)
host_tick_rate                               20239739                       # Simulator tick rate (ticks/s)
host_mem_usage                                 849836                       # Number of bytes of host memory used
host_seconds                                  1112.80                       # Real time elapsed on the host
sim_insts                                    57978040                       # Number of instructions simulated
sim_ops                                     115281886                       # Number of ops (including micro ops) simulated
system.voltage_domain.voltage                       1                       # Voltage in Volts
system.clk_domain.clock                          1000                       # Clock period in ticks
system.mem_ctrls.pwrStateResidencyTicks::UNDEFINED  22522812000                       # Cumulative time (in ticks) in various power states
system.mem_ctrls.bytes_read::ruby.dir_cntrl0      1564416                       # Number of bytes read from this memory
system.mem_ctrls.bytes_read::total            1564416                       # Number of bytes read from this memory
system.mem_ctrls.num_reads::ruby.dir_cntrl0        24444                       # Number of read requests responded to by this memory
system.mem_ctrls.num_reads::total               24444                       # Number of read requests responded to by this memory
system.mem_ctrls.bw_read::ruby.dir_cntrl0     69459178                       # Total read bandwidth from this memory (bytes/s)
system.mem_ctrls.bw_read::total              69459178                       # Total read bandwidth from this memory (bytes/s)
system.mem_ctrls.bw_total::ruby.dir_cntrl0     69459178                       # Total bandwidth to/from this memory (bytes/s)
system.mem_ctrls.bw_total::total             69459178                       # Total bandwidth to/from this memory (bytes/s)
system.mem_ctrls.readReqs                       24444                       # Number of read requests accepted
system.mem_ctrls.avgNetLat                       0.00                       # Average network latency to DRAM controller
system.mem_ctrls.writeReqs                          0                       # Number of write requests accepted
system.mem_ctrls.readBursts                     24444                       # Number of DRAM read bursts, including those serviced by the write queue
system.mem_ctrls.writeBursts                        0                       # Number of DRAM write bursts, including those merged in the write queue
system.mem_ctrls.bytesReadDRAM                1564416                       # Total number of bytes read from DRAM
system.mem_ctrls.bytesReadWrQ                       0                       # Total number of bytes read from write queue
system.mem_ctrls.bytesWritten                       0                       # Total number of bytes written to DRAM
system.mem_ctrls.bytesReadSys                 1564416                       # Total read bytes from the system interface side
system.mem_ctrls.bytesWrittenSys                    0                       # Total written bytes from the system interface side
system.mem_ctrls.servicedByWrQ                      0                       # Number of DRAM read bursts serviced by the write queue
system.mem_ctrls.mergedWrBursts                     0                       # Number of DRAM write bursts merged with an existing one
system.mem_ctrls.neitherReadNorWriteReqs            0                       # Number of requests that are neither read nor write
system.mem_ctrls.perBankRdBursts::0              1607                       # Per bank write bursts
system.mem_ctrls.perBankRdBursts::1              1533                       # Per bank write bursts
system.mem_ctrls.perBankRdBursts::2              1498                       # Per bank write bursts
system.mem_ctrls.perBankRdBursts::3              1435                       # Per bank write bursts
system.mem_ctrls.perBankRdBursts::4              1397                       # Per bank write bursts
system.mem_ctrls.perBankRdBursts::5              1391                       # Per bank write bursts
system.mem_ctrls.perBankRdBursts::6              1355                       # Per bank write bursts
system.mem_ctrls.perBankRdBursts::7              1466                       # Per bank write bursts
system.mem_ctrls.perBankRdBursts::8              1494                       # Per bank write bursts
system.mem_ctrls.perBankRdBursts::9              1589                       # Per bank write bursts
system.mem_ctrls.perBankRdBursts::10             1607                       # Per bank write bursts
system.mem_ctrls.perBankRdBursts::11             1498                       # Per bank write bursts
system.mem_ctrls.perBankRdBursts::12             1701                       # Per bank write bursts
system.mem_ctrls.perBankRdBursts::13             1662                       # Per bank write bursts
system.mem_ctrls.perBankRdBursts::14             1606                       # Per bank write bursts
system.mem_ctrls.perBankRdBursts::15             1605                       # Per bank write bursts
system.mem_ctrls.perBankWrBursts::0                 0                       # Per bank write bursts
system.mem_ctrls.perBankWrBursts::1                 0                       # Per bank write bursts
system.mem_ctrls.perBankWrBursts::2                 0                       # Per bank write bursts
system.mem_ctrls.perBankWrBursts::3                 0                       # Per bank write bursts
system.mem_ctrls.perBankWrBursts::4                 0                       # Per bank write bursts
system.mem_ctrls.perBankWrBursts::5                 0                       # Per bank write bursts
system.mem_ctrls.perBankWrBursts::6                 0                       # Per bank write bursts
system.mem_ctrls.perBankWrBursts::7                 0                       # Per bank write bursts
system.mem_ctrls.perBankWrBursts::8                 0                       # Per bank write bursts
system.mem_ctrls.perBankWrBursts::9                 0                       # Per bank write bursts
system.mem_ctrls.perBankWrBursts::10                0                       # Per bank write bursts
system.mem_ctrls.perBankWrBursts::11                0                       # Per bank write bursts
system.mem_ctrls.perBankWrBursts::12                0                       # Per bank write bursts
system.mem_ctrls.perBankWrBursts::13                0                       # Per bank write bursts
system.mem_ctrls.perBankWrBursts::14                0                       # Per bank write bursts
system.mem_ctrls.perBankWrBursts::15                0                       # Per bank write bursts
system.mem_ctrls.numRdRetry                         0                       # Number of times read queue was full causing retry
system.mem_ctrls.numWrRetry                         0                       # Number of times write queue was full causing retry
system.mem_ctrls.totGap                   22522746500                       # Total gap between requests
system.mem_ctrls.readPktSize::0                     0                       # Read request sizes (log2)
system.mem_ctrls.readPktSize::1                     0                       # Read request sizes (log2)
system.mem_ctrls.readPktSize::2                     0                       # Read request sizes (log2)
system.mem_ctrls.readPktSize::3                     0                       # Read request sizes (log2)
system.mem_ctrls.readPktSize::4                     0                       # Read request sizes (log2)
system.mem_ctrls.readPktSize::5                     0                       # Read request sizes (log2)
system.mem_ctrls.readPktSize::6                 24444                       # Read request sizes (log2)
system.mem_ctrls.writePktSize::0                    0                       # Write request sizes (log2)
system.mem_ctrls.writePktSize::1                    0                       # Write request sizes (log2)
system.mem_ctrls.writePktSize::2                    0                       # Write request sizes (log2)
system.mem_ctrls.writePktSize::3                    0                       # Write request sizes (log2)
system.mem_ctrls.writePktSize::4                    0                       # Write request sizes (log2)
system.mem_ctrls.writePktSize::5                    0                       # Write request sizes (log2)
system.mem_ctrls.writePktSize::6                    0                       # Write request sizes (log2)
system.mem_ctrls.rdQLenPdf::0                   12267                       # What read queue length does an incoming req see
system.mem_ctrls.rdQLenPdf::1                    2721                       # What read queue length does an incoming req see
system.mem_ctrls.rdQLenPdf::2                    2415                       # What read queue length does an incoming req see
system.mem_ctrls.rdQLenPdf::3                    1803                       # What read queue length does an incoming req see
system.mem_ctrls.rdQLenPdf::4                    1235                       # What read queue length does an incoming req see
system.mem_ctrls.rdQLenPdf::5                    1015                       # What read queue length does an incoming req see
system.mem_ctrls.rdQLenPdf::6                     850                       # What read queue length does an incoming req see
system.mem_ctrls.rdQLenPdf::7                     661                       # What read queue length does an incoming req see
system.mem_ctrls.rdQLenPdf::8                     481                       # What read queue length does an incoming req see
system.mem_ctrls.rdQLenPdf::9                     367                       # What read queue length does an incoming req see
system.mem_ctrls.rdQLenPdf::10                    279                       # What read queue length does an incoming req see
system.mem_ctrls.rdQLenPdf::11                    170                       # What read queue length does an incoming req see
system.mem_ctrls.rdQLenPdf::12                     98                       # What read queue length does an incoming req see
system.mem_ctrls.rdQLenPdf::13                     48                       # What read queue length does an incoming req see
system.mem_ctrls.rdQLenPdf::14                     18                       # What read queue length does an incoming req see
system.mem_ctrls.rdQLenPdf::15                      9                       # What read queue length does an incoming req see
system.mem_ctrls.rdQLenPdf::16                      3                       # What read queue length does an incoming req see
system.mem_ctrls.rdQLenPdf::17                      1                       # What read queue length does an incoming req see
system.mem_ctrls.rdQLenPdf::18                      1                       # What read queue length does an incoming req see
system.mem_ctrls.rdQLenPdf::19                      2                       # What read queue length does an incoming req see
system.mem_ctrls.rdQLenPdf::20                      0                       # What read queue length does an incoming req see
system.mem_ctrls.rdQLenPdf::21                      0                       # What read queue length does an incoming req see
system.mem_ctrls.rdQLenPdf::22                      0                       # What read queue length does an incoming req see
system.mem_ctrls.rdQLenPdf::23                      0                       # What read queue length does an incoming req see
system.mem_ctrls.rdQLenPdf::24                      0                       # What read queue length does an incoming req see
system.mem_ctrls.rdQLenPdf::25                      0                       # What read queue length does an incoming req see
system.mem_ctrls.rdQLenPdf::26                      0                       # What read queue length does an incoming req see
system.mem_ctrls.rdQLenPdf::27                      0                       # What read queue length does an incoming req see
system.mem_ctrls.rdQLenPdf::28                      0                       # What read queue length does an incoming req see
system.mem_ctrls.rdQLenPdf::29                      0                       # What read queue length does an incoming req see
system.mem_ctrls.rdQLenPdf::30                      0                       # What read queue length does an incoming req see
system.mem_ctrls.rdQLenPdf::31                      0                       # What read queue length does an incoming req see
system.mem_ctrls.wrQLenPdf::0                       0                       # What write queue length does an incoming req see
system.mem_ctrls.wrQLenPdf::1                       0                       # What write queue length does an incoming req see
system.mem_ctrls.wrQLenPdf::2                       0                       # What write queue length does an incoming req see
system.mem_ctrls.wrQLenPdf::3                       0                       # What write queue length does an incoming req see
system.mem_ctrls.wrQLenPdf::4                       0                       # What write queue length does an incoming req see
system.mem_ctrls.wrQLenPdf::5                       0                       # What write queue length does an incoming req see
system.mem_ctrls.wrQLenPdf::6                       0                       # What write queue length does an incoming req see
system.mem_ctrls.wrQLenPdf::7                       0                       # What write queue length does an incoming req see
system.mem_ctrls.wrQLenPdf::8                       0                       # What write queue length does an incoming req see
system.mem_ctrls.wrQLenPdf::9                       0                       # What write queue length does an incoming req see
system.mem_ctrls.wrQLenPdf::10                      0                       # What write queue length does an incoming req see
system.mem_ctrls.wrQLenPdf::11                      0                       # What write queue length does an incoming req see
system.mem_ctrls.wrQLenPdf::12                      0                       # What write queue length does an incoming req see
system.mem_ctrls.wrQLenPdf::13                      0                       # What write queue length does an incoming req see
system.mem_ctrls.wrQLenPdf::14                      0                       # What write queue length does an incoming req see
system.mem_ctrls.wrQLenPdf::15                      0                       # What write queue length does an incoming req see
system.mem_ctrls.wrQLenPdf::16                      0                       # What write queue length does an incoming req see
system.mem_ctrls.wrQLenPdf::17                      0                       # What write queue length does an incoming req see
system.mem_ctrls.wrQLenPdf::18                      0                       # What write queue length does an incoming req see
system.mem_ctrls.wrQLenPdf::19                      0                       # What write queue length does an incoming req see
system.mem_ctrls.wrQLenPdf::20                      0                       # What write queue length does an incoming req see
system.mem_ctrls.wrQLenPdf::21                      0                       # What write queue length does an incoming req see
system.mem_ctrls.wrQLenPdf::22                      0                       # What write queue length does an incoming req see
system.mem_ctrls.wrQLenPdf::23                      0                       # What write queue length does an incoming req see
system.mem_ctrls.wrQLenPdf::24                      0                       # What write queue length does an incoming req see
system.mem_ctrls.wrQLenPdf::25                      0                       # What write queue length does an incoming req see
system.mem_ctrls.wrQLenPdf::26                      0                       # What write queue length does an incoming req see
system.mem_ctrls.wrQLenPdf::27                      0                       # What write queue length does an incoming req see
system.mem_ctrls.wrQLenPdf::28                      0                       # What write queue length does an incoming req see
system.mem_ctrls.wrQLenPdf::29                      0                       # What write queue length does an incoming req see
system.mem_ctrls.wrQLenPdf::30                      0                       # What write queue length does an incoming req see
system.mem_ctrls.wrQLenPdf::31                      0                       # What write queue length does an incoming req see
system.mem_ctrls.wrQLenPdf::32                      0                       # What write queue length does an incoming req see
system.mem_ctrls.wrQLenPdf::33                      0                       # What write queue length does an incoming req see
system.mem_ctrls.wrQLenPdf::34                      0                       # What write queue length does an incoming req see
system.mem_ctrls.wrQLenPdf::35                      0                       # What write queue length does an incoming req see
system.mem_ctrls.wrQLenPdf::36                      0                       # What write queue length does an incoming req see
system.mem_ctrls.wrQLenPdf::37                      0                       # What write queue length does an incoming req see
system.mem_ctrls.wrQLenPdf::38                      0                       # What write queue length does an incoming req see
system.mem_ctrls.wrQLenPdf::39                      0                       # What write queue length does an incoming req see
system.mem_ctrls.wrQLenPdf::40                      0                       # What write queue length does an incoming req see
system.mem_ctrls.wrQLenPdf::41                      0                       # What write queue length does an incoming req see
system.mem_ctrls.wrQLenPdf::42                      0                       # What write queue length does an incoming req see
system.mem_ctrls.wrQLenPdf::43                      0                       # What write queue length does an incoming req see
system.mem_ctrls.wrQLenPdf::44                      0                       # What write queue length does an incoming req see
system.mem_ctrls.wrQLenPdf::45                      0                       # What write queue length does an incoming req see
system.mem_ctrls.wrQLenPdf::46                      0                       # What write queue length does an incoming req see
system.mem_ctrls.wrQLenPdf::47                      0                       # What write queue length does an incoming req see
system.mem_ctrls.wrQLenPdf::48                      0                       # What write queue length does an incoming req see
system.mem_ctrls.wrQLenPdf::49                      0                       # What write queue length does an incoming req see
system.mem_ctrls.wrQLenPdf::50                      0                       # What write queue length does an incoming req see
system.mem_ctrls.wrQLenPdf::51                      0                       # What write queue length does an incoming req see
system.mem_ctrls.wrQLenPdf::52                      0                       # What write queue length does an incoming req see
system.mem_ctrls.wrQLenPdf::53                      0                       # What write queue length does an incoming req see
system.mem_ctrls.wrQLenPdf::54                      0                       # What write queue length does an incoming req see
system.mem_ctrls.wrQLenPdf::55                      0                       # What write queue length does an incoming req see
system.mem_ctrls.wrQLenPdf::56                      0                       # What write queue length does an incoming req see
system.mem_ctrls.wrQLenPdf::57                      0                       # What write queue length does an incoming req see
system.mem_ctrls.wrQLenPdf::58                      0                       # What write queue length does an incoming req see
system.mem_ctrls.wrQLenPdf::59                      0                       # What write queue length does an incoming req see
system.mem_ctrls.wrQLenPdf::60                      0                       # What write queue length does an incoming req see
system.mem_ctrls.wrQLenPdf::61                      0                       # What write queue length does an incoming req see
system.mem_ctrls.wrQLenPdf::62                      0                       # What write queue length does an incoming req see
system.mem_ctrls.wrQLenPdf::63                      0                       # What write queue length does an incoming req see
system.mem_ctrls.bytesPerActivate::samples         5338                       # Bytes accessed per row activation
system.mem_ctrls.bytesPerActivate::mean    292.771825                       # Bytes accessed per row activation
system.mem_ctrls.bytesPerActivate::gmean   157.353863                       # Bytes accessed per row activation
system.mem_ctrls.bytesPerActivate::stdev   346.176794                       # Bytes accessed per row activation
system.mem_ctrls.bytesPerActivate::0-127         2602     48.74%     48.74% # Bytes accessed per row activation
system.mem_ctrls.bytesPerActivate::128-255         1043     19.54%     68.28% # Bytes accessed per row activation
system.mem_ctrls.bytesPerActivate::256-383          302      5.66%     73.94% # Bytes accessed per row activation
system.mem_ctrls.bytesPerActivate::384-511          168      3.15%     77.09% # Bytes accessed per row activation
system.mem_ctrls.bytesPerActivate::512-639          154      2.88%     79.97% # Bytes accessed per row activation
system.mem_ctrls.bytesPerActivate::640-767          218      4.08%     84.06% # Bytes accessed per row activation
system.mem_ctrls.bytesPerActivate::768-895           43      0.81%     84.86% # Bytes accessed per row activation
system.mem_ctrls.bytesPerActivate::896-1023           40      0.75%     85.61% # Bytes accessed per row activation
system.mem_ctrls.bytesPerActivate::1024-1151          768     14.39%    100.00% # Bytes accessed per row activation
system.mem_ctrls.bytesPerActivate::total         5338                       # Bytes accessed per row activation
system.mem_ctrls.totQLat                    577075042                       # Total ticks spent queuing
system.mem_ctrls.totMemAccLat              1035400042                       # Total ticks spent from burst creation until serviced by the DRAM
system.mem_ctrls.totBusLat                  122220000                       # Total ticks spent in databus transfers
system.mem_ctrls.avgQLat                     23608.04                       # Average queueing delay per DRAM burst
system.mem_ctrls.avgBusLat                    5000.00                       # Average bus latency per DRAM burst
system.mem_ctrls.avgMemAccLat                42358.04                       # Average memory access latency per DRAM burst
system.mem_ctrls.avgRdBW                        69.46                       # Average DRAM read bandwidth in MiByte/s
system.mem_ctrls.avgWrBW                         0.00                       # Average achieved write bandwidth in MiByte/s
system.mem_ctrls.avgRdBWSys                     69.46                       # Average system read bandwidth in MiByte/s
system.mem_ctrls.avgWrBWSys                      0.00                       # Average system write bandwidth in MiByte/s
system.mem_ctrls.peakBW                      12800.00                       # Theoretical peak bandwidth in MiByte/s
system.mem_ctrls.busUtil                         0.54                       # Data bus utilization in percentage
system.mem_ctrls.busUtilRead                     0.54                       # Data bus utilization in percentage for reads
system.mem_ctrls.busUtilWrite                    0.00                       # Data bus utilization in percentage for writes
system.mem_ctrls.avgRdQLen                       1.03                       # Average read queue length when enqueuing
system.mem_ctrls.avgWrQLen                       0.00                       # Average write queue length when enqueuing
system.mem_ctrls.readRowHits                    19096                       # Number of row buffer hits during reads
system.mem_ctrls.writeRowHits                       0                       # Number of row buffer hits during writes
system.mem_ctrls.readRowHitRate                 78.12                       # Row buffer hit rate for reads
system.mem_ctrls.writeRowHitRate                  nan                       # Row buffer hit rate for writes
system.mem_ctrls.avgGap                     921401.84                       # Average gap between requests
system.mem_ctrls.pageHitRate                    78.12                       # Row buffer hit rate, read and write combined
system.mem_ctrls_0.actEnergy                 17450160                       # Energy for activate commands per rank (pJ)
system.mem_ctrls_0.preEnergy                  9256005                       # Energy for precharge commands per rank (pJ)
system.mem_ctrls_0.readEnergy                83409480                       # Energy for read commands per rank (pJ)
system.mem_ctrls_0.writeEnergy                      0                       # Energy for write commands per rank (pJ)
system.mem_ctrls_0.refreshEnergy         78059280.000000                       # Energy for refresh commands per rank (pJ)
system.mem_ctrls_0.actBackEnergy            143301420                       # Energy for active background per rank (pJ)
system.mem_ctrls_0.preBackEnergy              3082080                       # Energy for precharge background per rank (pJ)
system.mem_ctrls_0.actPowerDownEnergy       245846130                       # Energy for active power-down per rank (pJ)
system.mem_ctrls_0.prePowerDownEnergy        27456000                       # Energy for precharge power-down per rank (pJ)
system.mem_ctrls_0.selfRefreshEnergy       5185992120                       # Energy for self refresh per rank (pJ)
system.mem_ctrls_0.totalEnergy             5793852675                       # Total energy per rank (pJ)
system.mem_ctrls_0.averagePower            257.243747                       # Core power per rank (mW)
system.mem_ctrls_0.totalIdleTime          22200484781                       # Total Idle time Per DRAM Rank
system.mem_ctrls_0.memoryStateTime::IDLE      3309750                       # Time in different power states
system.mem_ctrls_0.memoryStateTime::REF      33068000                       # Time in different power states
system.mem_ctrls_0.memoryStateTime::SREF  21589891750                       # Time in different power states
system.mem_ctrls_0.memoryStateTime::PRE_PDN     71497500                       # Time in different power states
system.mem_ctrls_0.memoryStateTime::ACT     285919219                       # Time in different power states
system.mem_ctrls_0.memoryStateTime::ACT_PDN    539125781                       # Time in different power states
system.mem_ctrls_1.actEnergy                 20734560                       # Energy for activate commands per rank (pJ)
system.mem_ctrls_1.preEnergy                 11001705                       # Energy for precharge commands per rank (pJ)
system.mem_ctrls_1.readEnergy                91120680                       # Energy for read commands per rank (pJ)
system.mem_ctrls_1.writeEnergy                      0                       # Energy for write commands per rank (pJ)
system.mem_ctrls_1.refreshEnergy         79288560.000000                       # Energy for refresh commands per rank (pJ)
system.mem_ctrls_1.actBackEnergy            149984100                       # Energy for active background per rank (pJ)
system.mem_ctrls_1.preBackEnergy              3037440                       # Energy for precharge background per rank (pJ)
system.mem_ctrls_1.actPowerDownEnergy       260223240                       # Energy for active power-down per rank (pJ)
system.mem_ctrls_1.prePowerDownEnergy        21960960                       # Energy for precharge power-down per rank (pJ)
system.mem_ctrls_1.selfRefreshEnergy       5177265840                       # Energy for self refresh per rank (pJ)
system.mem_ctrls_1.totalEnergy             5814617085                       # Total energy per rank (pJ)
system.mem_ctrls_1.averagePower            258.165675                       # Core power per rank (mW)
system.mem_ctrls_1.totalIdleTime          22185789282                       # Total Idle time Per DRAM Rank
system.mem_ctrls_1.memoryStateTime::IDLE      2857500                       # Time in different power states
system.mem_ctrls_1.memoryStateTime::REF      33576000                       # Time in different power states
system.mem_ctrls_1.memoryStateTime::SREF  21558133750                       # Time in different power states
system.mem_ctrls_1.memoryStateTime::PRE_PDN     57179750                       # Time in different power states
system.mem_ctrls_1.memoryStateTime::ACT     300436468                       # Time in different power states
system.mem_ctrls_1.memoryStateTime::ACT_PDN    570628532                       # Time in different power states
system.pwrStateResidencyTicks::UNDEFINED  22522812000                       # Cumulative time (in ticks) in various power states
system.cpu0.branchPred.lookups                6148856                       # Number of BP lookups
system.cpu0.branchPred.condPredicted          6148856                       # Number of conditional branches predicted
system.cpu0.branchPred.condIncorrect             8130                       # Number of conditional branches incorrect
system.cpu0.branchPred.BTBLookups             5659089                       # Number of BTB lookups
system.cpu0.branchPred.BTBHits                      0                       # Number of BTB hits
system.cpu0.branchPred.BTBCorrect                   0                       # Number of correct BTB predictions (this stat may not work properly.
system.cpu0.branchPred.BTBHitPct             0.000000                       # BTB Hit Percentage
system.cpu0.branchPred.usedRAS                 470337                       # Number of times the RAS was used to get a target.
system.cpu0.branchPred.RASInCorrect               437                       # Number of incorrect RAS predictions.
system.cpu0.branchPred.indirectLookups        5659089                       # Number of indirect predictor lookups.
system.cpu0.branchPred.indirectHits           3290337                       # Number of indirect target hits.
system.cpu0.branchPred.indirectMisses         2368752                       # Number of indirect misses.
system.cpu0.branchPredindirectMispredicted         4219                       # Number of mispredicted indirect branches.
system.cpu_voltage_domain.voltage                   1                       # Voltage in Volts
system.cpu0.clk_domain.clock                      500                       # Clock period in ticks
system.cpu0.dtb.walker.pwrStateResidencyTicks::UNDEFINED  22522812000                       # Cumulative time (in ticks) in various power states
system.cpu0.apic_clk_domain.clock                8000                       # Clock period in ticks
system.cpu0.interrupts.pwrStateResidencyTicks::UNDEFINED  22522812000                       # Cumulative time (in ticks) in various power states
system.cpu0.itb.walker.pwrStateResidencyTicks::UNDEFINED  22522812000                       # Cumulative time (in ticks) in various power states
system.cpu0.workload.num_syscalls              468100                       # Number of system calls
system.cpu0.pwrStateResidencyTicks::ON    22522812000                       # Cumulative time (in ticks) in various power states
system.cpu0.numCycles                        45045625                       # number of cpu cycles simulated
system.cpu0.numWorkItemsStarted                     0                       # number of work items this cpu started
system.cpu0.numWorkItemsCompleted                   0                       # number of work items this cpu completed
system.cpu0.fetch.icacheStallCycles           3354480                       # Number of cycles fetch is stalled on an Icache miss
system.cpu0.fetch.Insts                      17204969                       # Number of instructions fetch has processed
system.cpu0.fetch.Branches                    6148856                       # Number of branches that fetch encountered
system.cpu0.fetch.predictedBranches           3760674                       # Number of branches that fetch has predicted taken
system.cpu0.fetch.Cycles                     41586153                       # Number of cycles fetch has run and was not squashing or blocked
system.cpu0.fetch.SquashCycles                  16407                       # Number of cycles fetch has spent squashing
system.cpu0.fetch.MiscStallCycles               11745                       # Number of cycles fetch has spent waiting on interrupts, or bad addresses, or out of MSHRs
system.cpu0.fetch.PendingTrapStallCycles          364                       # Number of stall cycles due to pending traps
system.cpu0.fetch.PendingQuiesceStallCycles           13                       # Number of stall cycles due to pending quiesce instructions
system.cpu0.fetch.IcacheWaitRetryStallCycles         6893                       # Number of stall cycles due to full MSHR
system.cpu0.fetch.CacheLines                  3326879                       # Number of cache lines fetched
system.cpu0.fetch.IcacheSquashes                 2422                       # Number of outstanding Icache misses that were squashed
system.cpu0.fetch.rateDist::samples          44967851                       # Number of instructions fetched each cycle (Total)
system.cpu0.fetch.rateDist::mean             0.763679                       # Number of instructions fetched each cycle (Total)
system.cpu0.fetch.rateDist::stdev            2.093831                       # Number of instructions fetched each cycle (Total)
system.cpu0.fetch.rateDist::underflows              0      0.00%      0.00% # Number of instructions fetched each cycle (Total)
system.cpu0.fetch.rateDist::0                38551815     85.73%     85.73% # Number of instructions fetched each cycle (Total)
system.cpu0.fetch.rateDist::1                  711116      1.58%     87.31% # Number of instructions fetched each cycle (Total)
system.cpu0.fetch.rateDist::2                  237640      0.53%     87.84% # Number of instructions fetched each cycle (Total)
system.cpu0.fetch.rateDist::3                  711203      1.58%     89.42% # Number of instructions fetched each cycle (Total)
system.cpu0.fetch.rateDist::4                 1161110      2.58%     92.01% # Number of instructions fetched each cycle (Total)
system.cpu0.fetch.rateDist::5                  241778      0.54%     92.54% # Number of instructions fetched each cycle (Total)
system.cpu0.fetch.rateDist::6                  474484      1.06%     93.60% # Number of instructions fetched each cycle (Total)
system.cpu0.fetch.rateDist::7                  708866      1.58%     95.17% # Number of instructions fetched each cycle (Total)
system.cpu0.fetch.rateDist::8                 2169839      4.83%    100.00% # Number of instructions fetched each cycle (Total)
system.cpu0.fetch.rateDist::overflows               0      0.00%    100.00% # Number of instructions fetched each cycle (Total)
system.cpu0.fetch.rateDist::min_value               0                       # Number of instructions fetched each cycle (Total)
system.cpu0.fetch.rateDist::max_value               8                       # Number of instructions fetched each cycle (Total)
system.cpu0.fetch.rateDist::total            44967851                       # Number of instructions fetched each cycle (Total)
system.cpu0.fetch.branchRate                 0.136503                       # Number of branch fetches per cycle
system.cpu0.fetch.rate                       0.381945                       # Number of inst fetches per cycle
system.cpu0.decode.IdleCycles                 1126852                       # Number of cycles decode is idle
system.cpu0.decode.BlockedCycles             38952517                       # Number of cycles decode is blocked
system.cpu0.decode.RunCycles                  2432397                       # Number of cycles decode is running
system.cpu0.decode.UnblockCycles              2447882                       # Number of cycles decode is unblocking
system.cpu0.decode.SquashCycles                  8203                       # Number of cycles decode is squashing
system.cpu0.decode.DecodedInsts              34264500                       # Number of instructions handled by decode
system.cpu0.rename.SquashCycles                  8203                       # Number of cycles rename is squashing
system.cpu0.rename.IdleCycles                 1975639                       # Number of cycles rename is idle
system.cpu0.rename.BlockCycles                3688757                       # Number of cycles rename is blocking
system.cpu0.rename.serializeStallCycles      31915916                       # count of cycles rename stalled for serializing inst
system.cpu0.rename.RunCycles                  3247362                       # Number of cycles rename is running
system.cpu0.rename.UnblockCycles              4131974                       # Number of cycles rename is unblocking
system.cpu0.rename.RenamedInsts              34225487                       # Number of instructions processed by rename
system.cpu0.rename.ROBFullEvents              2109376                       # Number of times rename has blocked due to ROB full
system.cpu0.rename.IQFullEvents                 14162                       # Number of times rename has blocked due to IQ full
system.cpu0.rename.LQFullEvents                850997                       # Number of times rename has blocked due to LQ full
system.cpu0.rename.SQFullEvents                 48953                       # Number of times rename has blocked due to SQ full
system.cpu0.rename.RenamedOperands           36250544                       # Number of destination operands rename has renamed
system.cpu0.rename.RenameLookups             78883329                       # Number of register rename lookups that rename has made
system.cpu0.rename.int_rename_lookups        39019835                       # Number of integer rename lookups
system.cpu0.rename.fp_rename_lookups            15935                       # Number of floating rename lookups
system.cpu0.rename.CommittedMaps             35769705                       # Number of HB maps that are committed
system.cpu0.rename.UndoneMaps                  480839                       # Number of HB maps that are undone due to squashing
system.cpu0.rename.serializingInsts            468132                       # count of serializing insts renamed
system.cpu0.rename.tempSerializingInsts        468134                       # count of temporary serializing insts renamed
system.cpu0.rename.skidInsts                 14877775                       # count of insts added to the skid buffer
system.cpu0.memDep0.insertedLoads             4743368                       # Number of loads inserted to the mem dependence unit.
system.cpu0.memDep0.insertedStores             491594                       # Number of stores inserted to the mem dependence unit.
system.cpu0.memDep0.conflictingLoads             3038                       # Number of conflicting loads.
system.cpu0.memDep0.conflictingStores             272                       # Number of conflicting stores.
system.cpu0.iq.iqInstsAdded                  33687981                       # Number of instructions added to the IQ (excludes non-spec)
system.cpu0.iq.iqNonSpecInstsAdded             468165                       # Number of non-speculative instructions added to the IQ
system.cpu0.iq.iqInstsIssued                 34161495                       # Number of instructions issued
system.cpu0.iq.iqSquashedInstsIssued             6316                       # Number of squashed instructions issued
system.cpu0.iq.iqSquashedInstsExamined         318927                       # Number of squashed instructions iterated over during squash; mainly for profiling
system.cpu0.iq.iqSquashedOperandsExamined       480226                       # Number of squashed operands that are examined and possibly removed from graph
system.cpu0.iq.iqSquashedNonSpecRemoved            65                       # Number of squashed non-spec instructions that were removed
system.cpu0.iq.issued_per_cycle::samples     44967851                       # Number of insts issued each cycle
system.cpu0.iq.issued_per_cycle::mean        0.759687                       # Number of insts issued each cycle
system.cpu0.iq.issued_per_cycle::stdev       1.584704                       # Number of insts issued each cycle
system.cpu0.iq.issued_per_cycle::underflows            0      0.00%      0.00% # Number of insts issued each cycle
system.cpu0.iq.issued_per_cycle::0           32341555     71.92%     71.92% # Number of insts issued each cycle
system.cpu0.iq.issued_per_cycle::1            4913387     10.93%     82.85% # Number of insts issued each cycle
system.cpu0.iq.issued_per_cycle::2            1909910      4.25%     87.10% # Number of insts issued each cycle
system.cpu0.iq.issued_per_cycle::3            2652663      5.90%     92.99% # Number of insts issued each cycle
system.cpu0.iq.issued_per_cycle::4             705181      1.57%     94.56% # Number of insts issued each cycle
system.cpu0.iq.issued_per_cycle::5            1229765      2.73%     97.30% # Number of insts issued each cycle
system.cpu0.iq.issued_per_cycle::6             487917      1.09%     98.38% # Number of insts issued each cycle
system.cpu0.iq.issued_per_cycle::7             246536      0.55%     98.93% # Number of insts issued each cycle
system.cpu0.iq.issued_per_cycle::8             480937      1.07%    100.00% # Number of insts issued each cycle
system.cpu0.iq.issued_per_cycle::overflows            0      0.00%    100.00% # Number of insts issued each cycle
system.cpu0.iq.issued_per_cycle::min_value            0                       # Number of insts issued each cycle
system.cpu0.iq.issued_per_cycle::max_value            8                       # Number of insts issued each cycle
system.cpu0.iq.issued_per_cycle::total       44967851                       # Number of insts issued each cycle
system.cpu0.iq.fu_full::No_OpClass                  0      0.00%      0.00% # attempts to use FU when none available
system.cpu0.iq.fu_full::IntAlu                 239722     93.34%     93.34% # attempts to use FU when none available
system.cpu0.iq.fu_full::IntMult                     0      0.00%     93.34% # attempts to use FU when none available
system.cpu0.iq.fu_full::IntDiv                      0      0.00%     93.34% # attempts to use FU when none available
system.cpu0.iq.fu_full::FloatAdd                   46      0.02%     93.36% # attempts to use FU when none available
system.cpu0.iq.fu_full::FloatCmp                    0      0.00%     93.36% # attempts to use FU when none available
system.cpu0.iq.fu_full::FloatCvt                    0      0.00%     93.36% # attempts to use FU when none available
system.cpu0.iq.fu_full::FloatMult                   0      0.00%     93.36% # attempts to use FU when none available
system.cpu0.iq.fu_full::FloatMultAcc                0      0.00%     93.36% # attempts to use FU when none available
system.cpu0.iq.fu_full::FloatDiv                    0      0.00%     93.36% # attempts to use FU when none available
system.cpu0.iq.fu_full::FloatMisc                   0      0.00%     93.36% # attempts to use FU when none available
system.cpu0.iq.fu_full::FloatSqrt                   0      0.00%     93.36% # attempts to use FU when none available
system.cpu0.iq.fu_full::SimdAdd                     0      0.00%     93.36% # attempts to use FU when none available
system.cpu0.iq.fu_full::SimdAddAcc                  0      0.00%     93.36% # attempts to use FU when none available
system.cpu0.iq.fu_full::SimdAlu                     0      0.00%     93.36% # attempts to use FU when none available
system.cpu0.iq.fu_full::SimdCmp                     0      0.00%     93.36% # attempts to use FU when none available
system.cpu0.iq.fu_full::SimdCvt                     0      0.00%     93.36% # attempts to use FU when none available
system.cpu0.iq.fu_full::SimdMisc                    0      0.00%     93.36% # attempts to use FU when none available
system.cpu0.iq.fu_full::SimdMult                    0      0.00%     93.36% # attempts to use FU when none available
system.cpu0.iq.fu_full::SimdMultAcc                 0      0.00%     93.36% # attempts to use FU when none available
system.cpu0.iq.fu_full::SimdShift                   0      0.00%     93.36% # attempts to use FU when none available
system.cpu0.iq.fu_full::SimdShiftAcc                0      0.00%     93.36% # attempts to use FU when none available
system.cpu0.iq.fu_full::SimdSqrt                    0      0.00%     93.36% # attempts to use FU when none available
system.cpu0.iq.fu_full::SimdFloatAdd                0      0.00%     93.36% # attempts to use FU when none available
system.cpu0.iq.fu_full::SimdFloatAlu                0      0.00%     93.36% # attempts to use FU when none available
system.cpu0.iq.fu_full::SimdFloatCmp                0      0.00%     93.36% # attempts to use FU when none available
system.cpu0.iq.fu_full::SimdFloatCvt                0      0.00%     93.36% # attempts to use FU when none available
system.cpu0.iq.fu_full::SimdFloatDiv                0      0.00%     93.36% # attempts to use FU when none available
system.cpu0.iq.fu_full::SimdFloatMisc               0      0.00%     93.36% # attempts to use FU when none available
system.cpu0.iq.fu_full::SimdFloatMult               0      0.00%     93.36% # attempts to use FU when none available
system.cpu0.iq.fu_full::SimdFloatMultAcc            0      0.00%     93.36% # attempts to use FU when none available
system.cpu0.iq.fu_full::SimdFloatSqrt               0      0.00%     93.36% # attempts to use FU when none available
system.cpu0.iq.fu_full::MemRead                 16153      6.29%     99.65% # attempts to use FU when none available
system.cpu0.iq.fu_full::MemWrite                  771      0.30%     99.95% # attempts to use FU when none available
system.cpu0.iq.fu_full::FloatMemRead               84      0.03%     99.98% # attempts to use FU when none available
system.cpu0.iq.fu_full::FloatMemWrite              51      0.02%    100.00% # attempts to use FU when none available
system.cpu0.iq.fu_full::IprAccess                   0      0.00%    100.00% # attempts to use FU when none available
system.cpu0.iq.fu_full::InstPrefetch                0      0.00%    100.00% # attempts to use FU when none available
system.cpu0.iq.FU_type_0::No_OpClass             3929      0.01%      0.01% # Type of FU issued
system.cpu0.iq.FU_type_0::IntAlu             28584409     83.67%     83.69% # Type of FU issued
system.cpu0.iq.FU_type_0::IntMult              235885      0.69%     84.38% # Type of FU issued
system.cpu0.iq.FU_type_0::IntDiv                 1215      0.00%     84.38% # Type of FU issued
system.cpu0.iq.FU_type_0::FloatAdd               4037      0.01%     84.39% # Type of FU issued
system.cpu0.iq.FU_type_0::FloatCmp                  0      0.00%     84.39% # Type of FU issued
system.cpu0.iq.FU_type_0::FloatCvt                  0      0.00%     84.39% # Type of FU issued
system.cpu0.iq.FU_type_0::FloatMult                 0      0.00%     84.39% # Type of FU issued
system.cpu0.iq.FU_type_0::FloatMultAcc              0      0.00%     84.39% # Type of FU issued
system.cpu0.iq.FU_type_0::FloatDiv                  0      0.00%     84.39% # Type of FU issued
system.cpu0.iq.FU_type_0::FloatMisc                 0      0.00%     84.39% # Type of FU issued
system.cpu0.iq.FU_type_0::FloatSqrt                 0      0.00%     84.39% # Type of FU issued
system.cpu0.iq.FU_type_0::SimdAdd                   0      0.00%     84.39% # Type of FU issued
system.cpu0.iq.FU_type_0::SimdAddAcc                0      0.00%     84.39% # Type of FU issued
system.cpu0.iq.FU_type_0::SimdAlu                   0      0.00%     84.39% # Type of FU issued
system.cpu0.iq.FU_type_0::SimdCmp                   0      0.00%     84.39% # Type of FU issued
system.cpu0.iq.FU_type_0::SimdCvt                   0      0.00%     84.39% # Type of FU issued
system.cpu0.iq.FU_type_0::SimdMisc                  0      0.00%     84.39% # Type of FU issued
system.cpu0.iq.FU_type_0::SimdMult                  0      0.00%     84.39% # Type of FU issued
system.cpu0.iq.FU_type_0::SimdMultAcc               0      0.00%     84.39% # Type of FU issued
system.cpu0.iq.FU_type_0::SimdShift                 0      0.00%     84.39% # Type of FU issued
system.cpu0.iq.FU_type_0::SimdShiftAcc              0      0.00%     84.39% # Type of FU issued
system.cpu0.iq.FU_type_0::SimdSqrt                  0      0.00%     84.39% # Type of FU issued
system.cpu0.iq.FU_type_0::SimdFloatAdd              0      0.00%     84.39% # Type of FU issued
system.cpu0.iq.FU_type_0::SimdFloatAlu              0      0.00%     84.39% # Type of FU issued
system.cpu0.iq.FU_type_0::SimdFloatCmp              0      0.00%     84.39% # Type of FU issued
system.cpu0.iq.FU_type_0::SimdFloatCvt              0      0.00%     84.39% # Type of FU issued
system.cpu0.iq.FU_type_0::SimdFloatDiv              0      0.00%     84.39% # Type of FU issued
system.cpu0.iq.FU_type_0::SimdFloatMisc             0      0.00%     84.39% # Type of FU issued
system.cpu0.iq.FU_type_0::SimdFloatMult             0      0.00%     84.39% # Type of FU issued
system.cpu0.iq.FU_type_0::SimdFloatMultAcc            0      0.00%     84.39% # Type of FU issued
system.cpu0.iq.FU_type_0::SimdFloatSqrt             0      0.00%     84.39% # Type of FU issued
system.cpu0.iq.FU_type_0::MemRead             4841391     14.17%     98.56% # Type of FU issued
system.cpu0.iq.FU_type_0::MemWrite             486942      1.43%     99.99% # Type of FU issued
system.cpu0.iq.FU_type_0::FloatMemRead           3253      0.01%    100.00% # Type of FU issued
system.cpu0.iq.FU_type_0::FloatMemWrite           434      0.00%    100.00% # Type of FU issued
system.cpu0.iq.FU_type_0::IprAccess                 0      0.00%    100.00% # Type of FU issued
system.cpu0.iq.FU_type_0::InstPrefetch              0      0.00%    100.00% # Type of FU issued
system.cpu0.iq.FU_type_0::total              34161495                       # Type of FU issued
system.cpu0.iq.rate                          0.758375                       # Inst issue rate
system.cpu0.iq.fu_busy_cnt                     256827                       # FU busy when requested
system.cpu0.iq.fu_busy_rate                  0.007518                       # FU busy rate (busy events/executed inst)
system.cpu0.iq.int_inst_queue_reads         113537847                       # Number of integer instruction queue reads
system.cpu0.iq.int_inst_queue_writes         34461227                       # Number of integer instruction queue writes
system.cpu0.iq.int_inst_queue_wakeup_accesses     34013717                       # Number of integer instruction queue wakeup accesses
system.cpu0.iq.fp_inst_queue_reads              16137                       # Number of floating instruction queue reads
system.cpu0.iq.fp_inst_queue_writes             13908                       # Number of floating instruction queue writes
system.cpu0.iq.fp_inst_queue_wakeup_accesses         5803                       # Number of floating instruction queue wakeup accesses
system.cpu0.iq.int_alu_accesses              34406357                       # Number of integer alu accesses
system.cpu0.iq.fp_alu_accesses                   8036                       # Number of floating point alu accesses
system.cpu0.iew.lsq.thread0.forwLoads            9071                       # Number of loads that had data forwarded from stores
system.cpu0.iew.lsq.thread0.invAddrLoads            0                       # Number of loads ignored due to an invalid address
system.cpu0.iew.lsq.thread0.squashedLoads        44041                       # Number of loads squashed
system.cpu0.iew.lsq.thread0.ignoredResponses           28                       # Number of memory responses ignored because the instruction is squashed
system.cpu0.iew.lsq.thread0.memOrderViolation           71                       # Number of memory ordering violations
system.cpu0.iew.lsq.thread0.squashedStores         9653                       # Number of stores squashed
system.cpu0.iew.lsq.thread0.invAddrSwpfs            0                       # Number of software prefetches ignored due to an invalid address
system.cpu0.iew.lsq.thread0.blockedLoads            0                       # Number of blocked loads due to partial load-store forwarding
system.cpu0.iew.lsq.thread0.rescheduledLoads            3                       # Number of loads that were rescheduled
system.cpu0.iew.lsq.thread0.cacheBlocked       114030                       # Number of times an access to memory failed due to the cache being blocked
system.cpu0.iew.iewIdleCycles                       0                       # Number of cycles IEW is idle
system.cpu0.iew.iewSquashCycles                  8203                       # Number of cycles IEW is squashing
system.cpu0.iew.iewBlockCycles                 116070                       # Number of cycles IEW is blocking
system.cpu0.iew.iewUnblockCycles                 6409                       # Number of cycles IEW is unblocking
system.cpu0.iew.iewDispatchedInsts           34156146                       # Number of instructions dispatched to IQ
system.cpu0.iew.iewDispSquashedInsts             2076                       # Number of squashed instructions skipped by dispatch
system.cpu0.iew.iewDispLoadInsts              4743368                       # Number of dispatched load instructions
system.cpu0.iew.iewDispStoreInsts              491594                       # Number of dispatched store instructions
system.cpu0.iew.iewDispNonSpecInsts            468136                       # Number of dispatched non-speculative instructions
system.cpu0.iew.iewIQFullEvents                   524                       # Number of times the IQ has become full, causing a stall
system.cpu0.iew.iewLSQFullEvents                 5502                       # Number of times the LSQ has become full, causing a stall
system.cpu0.iew.memOrderViolationEvents            71                       # Number of memory order violations
system.cpu0.iew.predictedTakenIncorrect          1896                       # Number of branches that were predicted taken incorrectly
system.cpu0.iew.predictedNotTakenIncorrect         8442                       # Number of branches that were predicted not taken incorrectly
system.cpu0.iew.branchMispredicts               10338                       # Number of branch mispredicts detected at execute
system.cpu0.iew.iewExecutedInsts             34141959                       # Number of executed instructions
system.cpu0.iew.iewExecLoadInsts              4838761                       # Number of load instructions executed
system.cpu0.iew.iewExecSquashedInsts            19536                       # Number of squashed instructions skipped in execute
system.cpu0.iew.exec_swp                            0                       # number of swp insts executed
system.cpu0.iew.exec_nop                            0                       # number of nop insts executed
system.cpu0.iew.exec_refs                     5325194                       # number of memory reference insts executed
system.cpu0.iew.exec_branches                 6100747                       # Number of branches executed
system.cpu0.iew.exec_stores                    486433                       # Number of stores executed
system.cpu0.iew.exec_rate                    0.757942                       # Inst execution rate
system.cpu0.iew.wb_sent                      34024153                       # cumulative count of insts sent to commit
system.cpu0.iew.wb_count                     34019520                       # cumulative count of insts written-back
system.cpu0.iew.wb_producers                 23028149                       # num instructions producing a value
system.cpu0.iew.wb_consumers                 34518346                       # num instructions consuming a value
system.cpu0.iew.wb_rate                      0.755224                       # insts written-back per cycle
system.cpu0.iew.wb_fanout                    0.667128                       # average fanout of values written-back
system.cpu0.commit.commitSquashedInsts         318980                       # The number of squashed insts skipped by commit
system.cpu0.commit.commitNonSpecStalls         468100                       # The number of times commit has been forced to stall to communicate backwards
system.cpu0.commit.branchMispredicts             8150                       # The number of times a branch was mispredicted
system.cpu0.commit.committed_per_cycle::samples     44920151                       # Number of insts commited each cycle
system.cpu0.commit.committed_per_cycle::mean     0.753275                       # Number of insts commited each cycle
system.cpu0.commit.committed_per_cycle::stdev     1.965923                       # Number of insts commited each cycle
system.cpu0.commit.committed_per_cycle::underflows            0      0.00%      0.00% # Number of insts commited each cycle
system.cpu0.commit.committed_per_cycle::0     35753540     79.59%     79.59% # Number of insts commited each cycle
system.cpu0.commit.committed_per_cycle::1      3283408      7.31%     86.90% # Number of insts commited each cycle
system.cpu0.commit.committed_per_cycle::2       713484      1.59%     88.49% # Number of insts commited each cycle
system.cpu0.commit.committed_per_cycle::3      2107377      4.69%     93.18% # Number of insts commited each cycle
system.cpu0.commit.committed_per_cycle::4       242585      0.54%     93.72% # Number of insts commited each cycle
system.cpu0.commit.committed_per_cycle::5         5281      0.01%     93.73% # Number of insts commited each cycle
system.cpu0.commit.committed_per_cycle::6       236266      0.53%     94.26% # Number of insts commited each cycle
system.cpu0.commit.committed_per_cycle::7       235309      0.52%     94.78% # Number of insts commited each cycle
system.cpu0.commit.committed_per_cycle::8      2342901      5.22%    100.00% # Number of insts commited each cycle
system.cpu0.commit.committed_per_cycle::overflows            0      0.00%    100.00% # Number of insts commited each cycle
system.cpu0.commit.committed_per_cycle::min_value            0                       # Number of insts commited each cycle
system.cpu0.commit.committed_per_cycle::max_value            8                       # Number of insts commited each cycle
system.cpu0.commit.committed_per_cycle::total     44920151                       # Number of insts commited each cycle
system.cpu0.commit.committedInsts            16937067                       # Number of instructions committed
system.cpu0.commit.committedOps              33837219                       # Number of ops (including micro ops) committed
system.cpu0.commit.swp_count                        0                       # Number of s/w prefetches committed
system.cpu0.commit.refs                       5181268                       # Number of memory references committed
system.cpu0.commit.loads                      4699327                       # Number of loads committed
system.cpu0.commit.membars                          0                       # Number of memory barriers committed
system.cpu0.commit.branches                   6088063                       # Number of branches committed
system.cpu0.commit.fp_insts                      3646                       # Number of committed floating point instructions.
system.cpu0.commit.int_insts                 33833754                       # Number of committed integer instructions.
system.cpu0.commit.function_calls              468766                       # Number of function calls committed.
system.cpu0.commit.op_class_0::No_OpClass         1330      0.00%      0.00% # Class of committed instruction
system.cpu0.commit.op_class_0::IntAlu        28415224     83.98%     83.98% # Class of committed instruction
system.cpu0.commit.op_class_0::IntMult         235861      0.70%     84.68% # Class of committed instruction
system.cpu0.commit.op_class_0::IntDiv            1171      0.00%     84.68% # Class of committed instruction
system.cpu0.commit.op_class_0::FloatAdd          2365      0.01%     84.69% # Class of committed instruction
system.cpu0.commit.op_class_0::FloatCmp             0      0.00%     84.69% # Class of committed instruction
system.cpu0.commit.op_class_0::FloatCvt             0      0.00%     84.69% # Class of committed instruction
system.cpu0.commit.op_class_0::FloatMult            0      0.00%     84.69% # Class of committed instruction
system.cpu0.commit.op_class_0::FloatMultAcc            0      0.00%     84.69% # Class of committed instruction
system.cpu0.commit.op_class_0::FloatDiv             0      0.00%     84.69% # Class of committed instruction
system.cpu0.commit.op_class_0::FloatMisc            0      0.00%     84.69% # Class of committed instruction
system.cpu0.commit.op_class_0::FloatSqrt            0      0.00%     84.69% # Class of committed instruction
system.cpu0.commit.op_class_0::SimdAdd              0      0.00%     84.69% # Class of committed instruction
system.cpu0.commit.op_class_0::SimdAddAcc            0      0.00%     84.69% # Class of committed instruction
system.cpu0.commit.op_class_0::SimdAlu              0      0.00%     84.69% # Class of committed instruction
system.cpu0.commit.op_class_0::SimdCmp              0      0.00%     84.69% # Class of committed instruction
system.cpu0.commit.op_class_0::SimdCvt              0      0.00%     84.69% # Class of committed instruction
system.cpu0.commit.op_class_0::SimdMisc             0      0.00%     84.69% # Class of committed instruction
system.cpu0.commit.op_class_0::SimdMult             0      0.00%     84.69% # Class of committed instruction
system.cpu0.commit.op_class_0::SimdMultAcc            0      0.00%     84.69% # Class of committed instruction
system.cpu0.commit.op_class_0::SimdShift            0      0.00%     84.69% # Class of committed instruction
system.cpu0.commit.op_class_0::SimdShiftAcc            0      0.00%     84.69% # Class of committed instruction
system.cpu0.commit.op_class_0::SimdSqrt             0      0.00%     84.69% # Class of committed instruction
system.cpu0.commit.op_class_0::SimdFloatAdd            0      0.00%     84.69% # Class of committed instruction
system.cpu0.commit.op_class_0::SimdFloatAlu            0      0.00%     84.69% # Class of committed instruction
system.cpu0.commit.op_class_0::SimdFloatCmp            0      0.00%     84.69% # Class of committed instruction
system.cpu0.commit.op_class_0::SimdFloatCvt            0      0.00%     84.69% # Class of committed instruction
system.cpu0.commit.op_class_0::SimdFloatDiv            0      0.00%     84.69% # Class of committed instruction
system.cpu0.commit.op_class_0::SimdFloatMisc            0      0.00%     84.69% # Class of committed instruction
system.cpu0.commit.op_class_0::SimdFloatMult            0      0.00%     84.69% # Class of committed instruction
system.cpu0.commit.op_class_0::SimdFloatMultAcc            0      0.00%     84.69% # Class of committed instruction
system.cpu0.commit.op_class_0::SimdFloatSqrt            0      0.00%     84.69% # Class of committed instruction
system.cpu0.commit.op_class_0::MemRead        4698495     13.89%     98.57% # Class of committed instruction
system.cpu0.commit.op_class_0::MemWrite        481557      1.42%    100.00% # Class of committed instruction
system.cpu0.commit.op_class_0::FloatMemRead          832      0.00%    100.00% # Class of committed instruction
system.cpu0.commit.op_class_0::FloatMemWrite          384      0.00%    100.00% # Class of committed instruction
system.cpu0.commit.op_class_0::IprAccess            0      0.00%    100.00% # Class of committed instruction
system.cpu0.commit.op_class_0::InstPrefetch            0      0.00%    100.00% # Class of committed instruction
system.cpu0.commit.op_class_0::total         33837219                       # Class of committed instruction
system.cpu0.commit.bw_lim_events              2342901                       # number cycles where commit BW limit reached
system.cpu0.rob.rob_reads                    76733397                       # The number of ROB reads
system.cpu0.rob.rob_writes                   68360687                       # The number of ROB writes
system.cpu0.timesIdled                            784                       # Number of times that the entire CPU went into an idle state and unscheduled itself
system.cpu0.idleCycles                          77774                       # Total number of cycles that the CPU has spent unscheduled due to idling
system.cpu0.committedInsts                   16937067                       # Number of Instructions Simulated
system.cpu0.committedOps                     33837219                       # Number of Ops (including micro ops) Simulated
system.cpu0.cpi                              2.659588                       # CPI: Cycles Per Instruction
system.cpu0.cpi_total                        2.659588                       # CPI: Total CPI of All Threads
system.cpu0.ipc                              0.375998                       # IPC: Instructions Per Cycle
system.cpu0.ipc_total                        0.375998                       # IPC: Total IPC of All Threads
system.cpu0.int_regfile_reads                38891357                       # number of integer regfile reads
system.cpu0.int_regfile_writes               28132901                       # number of integer regfile writes
system.cpu0.fp_regfile_reads                     8681                       # number of floating regfile reads
system.cpu0.fp_regfile_writes                    4972                       # number of floating regfile writes
system.cpu0.cc_regfile_reads                 21215354                       # number of cc regfile reads
system.cpu0.cc_regfile_writes                 8781804                       # number of cc regfile writes
system.cpu0.misc_regfile_reads               18470082                       # number of misc regfile reads
system.cpu1.branchPred.lookups                5407580                       # Number of BP lookups
system.cpu1.branchPred.condPredicted          5407580                       # Number of conditional branches predicted
system.cpu1.branchPred.condIncorrect             8663                       # Number of conditional branches incorrect
system.cpu1.branchPred.BTBLookups             5030275                       # Number of BTB lookups
system.cpu1.branchPred.BTBHits                      0                       # Number of BTB hits
system.cpu1.branchPred.BTBCorrect                   0                       # Number of correct BTB predictions (this stat may not work properly.
system.cpu1.branchPred.BTBHitPct             0.000000                       # BTB Hit Percentage
system.cpu1.branchPred.usedRAS                 348406                       # Number of times the RAS was used to get a target.
system.cpu1.branchPred.RASInCorrect               479                       # Number of incorrect RAS predictions.
system.cpu1.branchPred.indirectLookups        5030275                       # Number of indirect predictor lookups.
system.cpu1.branchPred.indirectHits           2856188                       # Number of indirect target hits.
system.cpu1.branchPred.indirectMisses         2174087                       # Number of indirect misses.
system.cpu1.branchPredindirectMispredicted         4574                       # Number of mispredicted indirect branches.
system.cpu1.clk_domain.clock                      500                       # Clock period in ticks
system.cpu1.dtb.walker.pwrStateResidencyTicks::UNDEFINED  22522812000                       # Cumulative time (in ticks) in various power states
system.cpu1.apic_clk_domain.clock                8000                       # Clock period in ticks
system.cpu1.interrupts.pwrStateResidencyTicks::UNDEFINED  22522812000                       # Cumulative time (in ticks) in various power states
system.cpu1.itb.walker.pwrStateResidencyTicks::UNDEFINED  22522812000                       # Cumulative time (in ticks) in various power states
system.cpu1.workload.num_syscalls              346092                       # Number of system calls
system.cpu1.pwrStateResidencyTicks::ON    22522812000                       # Cumulative time (in ticks) in various power states
system.cpu1.numCycles                        36592104                       # number of cpu cycles simulated
system.cpu1.numWorkItemsStarted                     0                       # number of work items this cpu started
system.cpu1.numWorkItemsCompleted                   0                       # number of work items this cpu completed
system.cpu1.fetch.icacheStallCycles           2523032                       # Number of cycles fetch is stalled on an Icache miss
system.cpu1.fetch.Insts                      15514003                       # Number of instructions fetch has processed
system.cpu1.fetch.Branches                    5407580                       # Number of branches that fetch encountered
system.cpu1.fetch.predictedBranches           3204594                       # Number of branches that fetch has predicted taken
system.cpu1.fetch.Cycles                     33962827                       # Number of cycles fetch has run and was not squashing or blocked
system.cpu1.fetch.SquashCycles                  17463                       # Number of cycles fetch has spent squashing
system.cpu1.fetch.MiscStallCycles               10743                       # Number of cycles fetch has spent waiting on interrupts, or bad addresses, or out of MSHRs
system.cpu1.fetch.NoActiveThreadStallCycles           10                       # Number of stall cycles due to no active thread to fetch from
system.cpu1.fetch.PendingTrapStallCycles          512                       # Number of stall cycles due to pending traps
system.cpu1.fetch.PendingQuiesceStallCycles           13                       # Number of stall cycles due to pending quiesce instructions
system.cpu1.fetch.IcacheWaitRetryStallCycles         6758                       # Number of stall cycles due to full MSHR
system.cpu1.fetch.CacheLines                  2495991                       # Number of cache lines fetched
system.cpu1.fetch.IcacheSquashes                 2624                       # Number of outstanding Icache misses that were squashed
system.cpu1.fetch.rateDist::samples          36512626                       # Number of instructions fetched each cycle (Total)
system.cpu1.fetch.rateDist::mean             0.846756                       # Number of instructions fetched each cycle (Total)
system.cpu1.fetch.rateDist::stdev            2.196885                       # Number of instructions fetched each cycle (Total)
system.cpu1.fetch.rateDist::underflows              0      0.00%      0.00% # Number of instructions fetched each cycle (Total)
system.cpu1.fetch.rateDist::0                30859847     84.52%     84.52% # Number of instructions fetched each cycle (Total)
system.cpu1.fetch.rateDist::1                  529164      1.45%     85.97% # Number of instructions fetched each cycle (Total)
system.cpu1.fetch.rateDist::2                  177063      0.48%     86.45% # Number of instructions fetched each cycle (Total)
system.cpu1.fetch.rateDist::3                  528633      1.45%     87.90% # Number of instructions fetched each cycle (Total)
system.cpu1.fetch.rateDist::4                 1270760      3.48%     91.38% # Number of instructions fetched each cycle (Total)
system.cpu1.fetch.rateDist::5                  188413      0.52%     91.90% # Number of instructions fetched each cycle (Total)
system.cpu1.fetch.rateDist::6                  353919      0.97%     92.87% # Number of instructions fetched each cycle (Total)
system.cpu1.fetch.rateDist::7                  539142      1.48%     94.34% # Number of instructions fetched each cycle (Total)
system.cpu1.fetch.rateDist::8                 2065685      5.66%    100.00% # Number of instructions fetched each cycle (Total)
system.cpu1.fetch.rateDist::overflows               0      0.00%    100.00% # Number of instructions fetched each cycle (Total)
system.cpu1.fetch.rateDist::min_value               0                       # Number of instructions fetched each cycle (Total)
system.cpu1.fetch.rateDist::max_value               8                       # Number of instructions fetched each cycle (Total)
system.cpu1.fetch.rateDist::total            36512626                       # Number of instructions fetched each cycle (Total)
system.cpu1.fetch.branchRate                 0.147780                       # Number of branch fetches per cycle
system.cpu1.fetch.rate                       0.423971                       # Number of inst fetches per cycle
system.cpu1.decode.IdleCycles                 1069891                       # Number of cycles decode is idle
system.cpu1.decode.BlockedCycles             31133967                       # Number of cycles decode is blocked
system.cpu1.decode.RunCycles                  1861106                       # Number of cycles decode is running
system.cpu1.decode.UnblockCycles              2438921                       # Number of cycles decode is unblocking
system.cpu1.decode.SquashCycles                  8731                       # Number of cycles decode is squashing
system.cpu1.decode.DecodedInsts              30832866                       # Number of instructions handled by decode
system.cpu1.rename.SquashCycles                  8731                       # Number of cycles rename is squashing
system.cpu1.rename.IdleCycles                 1782718                       # Number of cycles rename is idle
system.cpu1.rename.BlockCycles                4022839                       # Number of cycles rename is blocking
system.cpu1.rename.serializeStallCycles      23599656                       # count of cycles rename stalled for serializing inst
system.cpu1.rename.RunCycles                  2684706                       # Number of cycles rename is running
system.cpu1.rename.UnblockCycles              4413966                       # Number of cycles rename is unblocking
system.cpu1.rename.RenamedInsts              30790460                       # Number of instructions processed by rename
system.cpu1.rename.ROBFullEvents              2335583                       # Number of times rename has blocked due to ROB full
system.cpu1.rename.IQFullEvents                 12666                       # Number of times rename has blocked due to IQ full
system.cpu1.rename.LQFullEvents                982879                       # Number of times rename has blocked due to LQ full
system.cpu1.rename.SQFullEvents                147536                       # Number of times rename has blocked due to SQ full
system.cpu1.rename.RenamedOperands           33258791                       # Number of destination operands rename has renamed
system.cpu1.rename.RenameLookups             69861423                       # Number of register rename lookups that rename has made
system.cpu1.rename.int_rename_lookups        34673641                       # Number of integer rename lookups
system.cpu1.rename.fp_rename_lookups            18430                       # Number of floating rename lookups
system.cpu1.rename.CommittedMaps             32750951                       # Number of HB maps that are committed
system.cpu1.rename.UndoneMaps                  507840                       # Number of HB maps that are undone due to squashing
system.cpu1.rename.serializingInsts            346127                       # count of serializing insts renamed
system.cpu1.rename.tempSerializingInsts        346128                       # count of temporary serializing insts renamed
system.cpu1.rename.skidInsts                 15097281                       # count of insts added to the skid buffer
system.cpu1.memDep0.insertedLoads             4446014                       # Number of loads inserted to the mem dependence unit.
system.cpu1.memDep0.insertedStores             392194                       # Number of stores inserted to the mem dependence unit.
system.cpu1.memDep0.conflictingLoads            19021                       # Number of conflicting loads.
system.cpu1.memDep0.conflictingStores             227                       # Number of conflicting stores.
system.cpu1.iq.iqInstsAdded                  30368564                       # Number of instructions added to the IQ (excludes non-spec)
system.cpu1.iq.iqNonSpecInstsAdded             346160                       # Number of non-speculative instructions added to the IQ
system.cpu1.iq.iqInstsIssued                 30737962                       # Number of instructions issued
system.cpu1.iq.iqSquashedInstsIssued             6540                       # Number of squashed instructions issued
system.cpu1.iq.iqSquashedInstsExamined         335449                       # Number of squashed instructions iterated over during squash; mainly for profiling
system.cpu1.iq.iqSquashedOperandsExamined       506638                       # Number of squashed operands that are examined and possibly removed from graph
system.cpu1.iq.iqSquashedNonSpecRemoved            68                       # Number of squashed non-spec instructions that were removed
system.cpu1.iq.issued_per_cycle::samples     36512626                       # Number of insts issued each cycle
system.cpu1.iq.issued_per_cycle::mean        0.841845                       # Number of insts issued each cycle
system.cpu1.iq.issued_per_cycle::stdev       1.589476                       # Number of insts issued each cycle
system.cpu1.iq.issued_per_cycle::underflows            0      0.00%      0.00% # Number of insts issued each cycle
system.cpu1.iq.issued_per_cycle::0           24629692     67.46%     67.46% # Number of insts issued each cycle
system.cpu1.iq.issued_per_cycle::1            4594261     12.58%     80.04% # Number of insts issued each cycle
system.cpu1.iq.issued_per_cycle::2            2108790      5.78%     85.81% # Number of insts issued each cycle
system.cpu1.iq.issued_per_cycle::3            2509194      6.87%     92.69% # Number of insts issued each cycle
system.cpu1.iq.issued_per_cycle::4             827117      2.27%     94.95% # Number of insts issued each cycle
[...]
system.ruby.L1Cache_Controller.S.Transient_Local_GETS_Last_Token::total            2                      
system.ruby.L1Cache_Controller.O.Load    |           0      0.00%      0.00% |     1204508    100.00%    100.00% |           0      0.00%    100.00% |           0      0.00%    100.00% |           3      0.00%    100.00%
system.ruby.L1Cache_Controller.O.Load::total      1204511                      
system.ruby.L1Cache_Controller.O.Store   |           0      0.00%      0.00% |           0      0.00%      0.00% |           0      0.00%      0.00% |           0      0.00%      0.00% |           1    100.00%    100.00%
system.ruby.L1Cache_Controller.O.Store::total            1                      
system.ruby.L1Cache_Controller.O.Transient_Local_GETX |           0      0.00%      0.00% |           1    100.00%    100.00% |           0      0.00%    100.00% |           0      0.00%    100.00% |           0      0.00%    100.00%
system.ruby.L1Cache_Controller.O.Transient_Local_GETX::total            1                      
system.ruby.L1Cache_Controller.O.Own_Lock_or_Unlock |           0      0.00%      0.00% |           1    100.00%    100.00% |           0      0.00%    100.00% |           0      0.00%    100.00% |           0      0.00%    100.00%
system.ruby.L1Cache_Controller.O.Own_Lock_or_Unlock::total            1                      
system.ruby.L1Cache_Controller.M.Load    |       21918      2.94%      2.94% |       75302     10.09%     13.02% |      109805     14.71%     27.73% |      495262     66.34%     94.07% |       44240      5.93%    100.00%
system.ruby.L1Cache_Controller.M.Load::total       746527                      
system.ruby.L1Cache_Controller.M.Ifetch  |      983804     35.09%     35.09% |     1108893     39.55%     74.63% |       83326      2.97%     77.60% |      627975     22.40%    100.00% |           0      0.00%    100.00%
system.ruby.L1Cache_Controller.M.Ifetch::total      2803998                      
system.ruby.L1Cache_Controller.M.Store   |          51      3.74%      3.74% |          49      3.60%      7.34% |          49      3.60%     10.94% |          46      3.38%     14.32% |        1167     85.68%    100.00%
system.ruby.L1Cache_Controller.M.Store::total         1362                      
system.ruby.L1Cache_Controller.M.L1_Replacement |        1820     16.09%     16.09% |        2496     22.07%     38.16% |        2497     22.08%     60.24% |        2503     22.13%     82.38% |        1993     17.62%    100.00%
system.ruby.L1Cache_Controller.M.L1_Replacement::total        11309                      
system.ruby.L1Cache_Controller.M.Transient_Local_GETS |           0      0.00%      0.00% |           0      0.00%      0.00% |           0      0.00%      0.00% |           0      0.00%      0.00% |           1    100.00%    100.00%
system.ruby.L1Cache_Controller.M.Transient_Local_GETS::total            1                      
system.ruby.L1Cache_Controller.M.Persistent_GETX |           1     25.00%     25.00% |           1     25.00%     50.00% |           1     25.00%     75.00% |           1     25.00%    100.00% |           0      0.00%    100.00%
system.ruby.L1Cache_Controller.M.Persistent_GETX::total            4                      
system.ruby.L1Cache_Controller.M.Persistent_GETS |           0      0.00%      0.00% |           0      0.00%      0.00% |           0      0.00%      0.00% |           0      0.00%      0.00% |           1    100.00%    100.00%
system.ruby.L1Cache_Controller.M.Persistent_GETS::total            1                      
system.ruby.L1Cache_Controller.M.Own_Lock_or_Unlock |         237     31.39%     31.39% |         161     21.32%     52.72% |         178     23.58%     76.29% |         179     23.71%    100.00% |           0      0.00%    100.00%
system.ruby.L1Cache_Controller.M.Own_Lock_or_Unlock::total          755                      
system.ruby.L1Cache_Controller.MM.Load   |      490604     30.53%     30.53% |      425033     26.45%     56.98% |      104608      6.51%     63.49% |      586668     36.51%    100.00% |           0      0.00%    100.00%
system.ruby.L1Cache_Controller.MM.Load::total      1606913                      
system.ruby.L1Cache_Controller.MM.Store  |      478970     36.36%     36.36% |      373467     28.35%     64.71% |       36374      2.76%     67.47% |      281120     21.34%     88.81% |      147459     11.19%    100.00%
system.ruby.L1Cache_Controller.MM.Store::total      1317390                      
system.ruby.L1Cache_Controller.MM.L1_Replacement |         541      2.84%      2.84% |         585      3.07%      5.91% |        1102      5.79%     11.70% |        7389     38.80%     50.50% |        9425     49.50%    100.00%
system.ruby.L1Cache_Controller.MM.L1_Replacement::total        19042                      
system.ruby.L1Cache_Controller.MM.Transient_Local_GETS |         113      3.57%      3.57% |        1010     31.94%     35.52% |        1018     32.19%     67.71% |        1021     32.29%    100.00% |           0      0.00%    100.00%
system.ruby.L1Cache_Controller.MM.Transient_Local_GETS::total         3162                      
system.ruby.L1Cache_Controller.MM.Persistent_GETS |           0      0.00%      0.00% |           0      0.00%      0.00% |           0      0.00%      0.00% |           0      0.00%      0.00% |           8    100.00%    100.00%
system.ruby.L1Cache_Controller.MM.Persistent_GETS::total            8                      
system.ruby.L1Cache_Controller.MM.Own_Lock_or_Unlock |         127     27.25%     27.25% |         130     27.90%     55.15% |          62     13.30%     68.45% |         143     30.69%     99.14% |           4      0.86%    100.00%
system.ruby.L1Cache_Controller.MM.Own_Lock_or_Unlock::total          466                      
system.ruby.L1Cache_Controller.M_W.Load  |       11118     23.36%     23.36% |       10825     22.75%     46.11% |       11291     23.73%     69.84% |       11181     23.50%     93.34% |        3170      6.66%    100.00%
system.ruby.L1Cache_Controller.M_W.Load::total        47585                      
system.ruby.L1Cache_Controller.M_W.Ifetch |         419     24.69%     24.69% |         430     25.34%     50.03% |         418     24.63%     74.66% |         430     25.34%    100.00% |           0      0.00%    100.00%
system.ruby.L1Cache_Controller.M_W.Ifetch::total         1697                      
system.ruby.L1Cache_Controller.M_W.Store |           8     21.05%     21.05% |           9     23.68%     44.74% |           9     23.68%     68.42% |          12     31.58%    100.00% |           0      0.00%    100.00%
system.ruby.L1Cache_Controller.M_W.Store::total           38                      
system.ruby.L1Cache_Controller.M_W.Transient_Local_GETX |           1     25.00%     25.00% |           1     25.00%     50.00% |           1     25.00%     75.00% |           1     25.00%    100.00% |           0      0.00%    100.00%
system.ruby.L1Cache_Controller.M_W.Transient_Local_GETX::total            4                      
system.ruby.L1Cache_Controller.M_W.Transient_Local_GETS |           0      0.00%      0.00% |           0      0.00%      0.00% |           0      0.00%      0.00% |           0      0.00%      0.00% |           1    100.00%    100.00%
system.ruby.L1Cache_Controller.M_W.Transient_Local_GETS::total            1                      
system.ruby.L1Cache_Controller.M_W.Own_Lock_or_Unlock |          13     15.29%     15.29% |          23     27.06%     42.35% |          25     29.41%     71.76% |          24     28.24%    100.00% |           0      0.00%    100.00%
system.ruby.L1Cache_Controller.M_W.Own_Lock_or_Unlock::total           85                      
system.ruby.L1Cache_Controller.M_W.Use_TimeoutNoStarvers |        3031     19.85%     19.85% |        3025     19.82%     39.67% |        3026     19.82%     59.49% |        3022     19.80%     79.29% |        3162     20.71%    100.00%
system.ruby.L1Cache_Controller.M_W.Use_TimeoutNoStarvers::total        15266                      
system.ruby.L1Cache_Controller.MM_W.Load |          48     29.09%     29.09% |          32     19.39%     48.48% |          35     21.21%     69.70% |          50     30.30%    100.00% |           0      0.00%    100.00%
system.ruby.L1Cache_Controller.MM_W.Load::total          165                      
system.ruby.L1Cache_Controller.MM_W.Store |        2620      3.76%      3.76% |        7057     10.14%     13.90% |        9616     13.81%     27.71% |       41035     58.95%     86.66% |        9285     13.34%    100.00%
system.ruby.L1Cache_Controller.MM_W.Store::total        69613                      
system.ruby.L1Cache_Controller.MM_W.Transient_Local_GETS |           0      0.00%      0.00% |           0      0.00%      0.00% |           0      0.00%      0.00% |           0      0.00%      0.00% |           8    100.00%    100.00%
system.ruby.L1Cache_Controller.MM_W.Transient_Local_GETS::total            8                      
system.ruby.L1Cache_Controller.MM_W.Own_Lock_or_Unlock |           3     21.43%     21.43% |           3     21.43%     42.86% |           3     21.43%     64.29% |           5     35.71%    100.00% |           0      0.00%    100.00%
system.ruby.L1Cache_Controller.MM_W.Own_Lock_or_Unlock::total           14                      
system.ruby.L1Cache_Controller.MM_W.Use_TimeoutNoStarvers |         690      3.13%      3.13% |        1571      7.13%     10.26% |        2096      9.51%     19.77% |        8389     38.07%     57.84% |        9289     42.16%    100.00%
system.ruby.L1Cache_Controller.MM_W.Use_TimeoutNoStarvers::total        22035                      
system.ruby.L1Cache_Controller.IM.Data_All_Tokens |         633      2.90%      2.90% |        1515      6.95%      9.85% |        2038      9.35%     19.20% |        8330     38.21%     57.41% |        9284     42.59%    100.00%
system.ruby.L1Cache_Controller.IM.Data_All_Tokens::total        21800                      
system.ruby.L1Cache_Controller.IM.Ack    |           0      0.00%      0.00% |           0      0.00%      0.00% |           0      0.00%      0.00% |           0      0.00%      0.00% |           2    100.00%    100.00%
system.ruby.L1Cache_Controller.IM.Ack::total            2                      
system.ruby.L1Cache_Controller.IM.Own_Lock_or_Unlock |         123     27.39%     27.39% |         127     28.29%     55.68% |          58     12.92%     68.60% |         137     30.51%     99.11% |           4      0.89%    100.00%
system.ruby.L1Cache_Controller.IM.Own_Lock_or_Unlock::total          449                      
system.ruby.L1Cache_Controller.IM.Request_Timeout |         368     32.25%     32.25% |         266     23.31%     55.57% |         167     14.64%     70.20% |         336     29.45%     99.65% |           4      0.35%    100.00%
system.ruby.L1Cache_Controller.IM.Request_Timeout::total         1141                      
system.ruby.L1Cache_Controller.SM.Data_All_Tokens |          49     25.00%     25.00% |          47     23.98%     48.98% |          49     25.00%     73.98% |          47     23.98%     97.96% |           4      2.04%    100.00%
system.ruby.L1Cache_Controller.SM.Data_All_Tokens::total          196                      
system.ruby.L1Cache_Controller.OM.Ack_All_Tokens |           0      0.00%      0.00% |           0      0.00%      0.00% |           0      0.00%      0.00% |           0      0.00%      0.00% |           1    100.00%    100.00%
system.ruby.L1Cache_Controller.OM.Ack_All_Tokens::total            1                      
system.ruby.L1Cache_Controller.IS.L1_Replacement |           0      0.00%      0.00% |           0      0.00%      0.00% |           1    100.00%    100.00% |           0      0.00%    100.00% |           0      0.00%    100.00%
system.ruby.L1Cache_Controller.IS.L1_Replacement::total            1                      
system.ruby.L1Cache_Controller.IS.Data_Shared |         392      4.43%      4.43% |         404      4.56%      8.99% |         381      4.31%     13.30% |         383      4.33%     17.63% |        7290     82.37%    100.00%
system.ruby.L1Cache_Controller.IS.Data_Shared::total         8850                      
system.ruby.L1Cache_Controller.IS.Data_Owner |           0      0.00%      0.00% |           1    100.00%    100.00% |           0      0.00%    100.00% |           0      0.00%    100.00% |           0      0.00%    100.00%
system.ruby.L1Cache_Controller.IS.Data_Owner::total            1                      
system.ruby.L1Cache_Controller.IS.Data_All_Tokens |        3040     19.86%     19.86% |        3034     19.82%     39.69% |        3035     19.83%     59.52% |        3034     19.82%     79.34% |        3162     20.66%    100.00%
system.ruby.L1Cache_Controller.IS.Data_All_Tokens::total        15305                      
system.ruby.L1Cache_Controller.IS.Own_Lock_or_Unlock |         225     33.38%     33.38% |         139     20.62%     54.01% |         154     22.85%     76.85% |         156     23.15%    100.00% |           0      0.00%    100.00%
system.ruby.L1Cache_Controller.IS.Own_Lock_or_Unlock::total          674                      
system.ruby.L1Cache_Controller.IS.Request_Timeout |        1856     30.27%     30.27% |        1395     22.75%     53.02% |        1230     20.06%     73.08% |        1651     26.92%    100.00% |           0      0.00%    100.00%
system.ruby.L1Cache_Controller.IS.Request_Timeout::total         6132                      
system.ruby.L1Cache_Controller.I_L.Load  |           1     25.00%     25.00% |           1     25.00%     50.00% |           1     25.00%     75.00% |           1     25.00%    100.00% |           0      0.00%    100.00%
system.ruby.L1Cache_Controller.I_L.Load::total            4                      
system.ruby.L1Cache_Controller.I_L.Store |           0      0.00%      0.00% |           0      0.00%      0.00% |           0      0.00%      0.00% |           0      0.00%      0.00% |           4    100.00%    100.00%
system.ruby.L1Cache_Controller.I_L.Store::total            4                      
system.ruby.L1Cache_Controller.I_L.Transient_Local_GETX |           3     25.00%     25.00% |           3     25.00%     50.00% |           3     25.00%     75.00% |           3     25.00%    100.00% |           0      0.00%    100.00%
system.ruby.L1Cache_Controller.I_L.Transient_Local_GETX::total           12                      
system.ruby.L1Cache_Controller.I_L.Transient_Local_GETS |           3     25.00%     25.00% |           3     25.00%     50.00% |           3     25.00%     75.00% |           3     25.00%    100.00% |           0      0.00%    100.00%
system.ruby.L1Cache_Controller.I_L.Transient_Local_GETS::total           12                      
system.ruby.L1Cache_Controller.I_L.Persistent_GETX |         336     18.18%     18.18% |         332     17.97%     36.15% |         401     21.70%     57.85% |         320     17.32%     75.16% |         459     24.84%    100.00%
system.ruby.L1Cache_Controller.I_L.Persistent_GETX::total         1848                      
system.ruby.L1Cache_Controller.I_L.Persistent_GETS |         521     17.21%     17.21% |         597     19.72%     36.93% |         580     19.16%     56.10% |         579     19.13%     75.22% |         750     24.78%    100.00%
system.ruby.L1Cache_Controller.I_L.Persistent_GETS::total         3027                      
system.ruby.L1Cache_Controller.I_L.Own_Lock_or_Unlock |           0      0.00%      0.00% |           0      0.00%      0.00% |           0      0.00%      0.00% |           0      0.00%      0.00% |           4    100.00%    100.00%
system.ruby.L1Cache_Controller.I_L.Own_Lock_or_Unlock::total            4                      
system.ruby.L1Cache_Controller.S_L.Load  |           0      0.00%      0.00% |           0      0.00%      0.00% |           0      0.00%      0.00% |           0      0.00%      0.00% |           1    100.00%    100.00%
system.ruby.L1Cache_Controller.S_L.Load::total            1                      
system.ruby.L1Cache_Controller.S_L.Own_Lock_or_Unlock |           0      0.00%      0.00% |           0      0.00%      0.00% |           0      0.00%      0.00% |           0      0.00%      0.00% |           1    100.00%    100.00%
system.ruby.L1Cache_Controller.S_L.Own_Lock_or_Unlock::total            1                      
system.ruby.L1Cache_Controller.IM_L.Own_Lock_or_Unlock |           0      0.00%      0.00% |           0      0.00%      0.00% |           0      0.00%      0.00% |           0      0.00%      0.00% |           4    100.00%    100.00%
system.ruby.L1Cache_Controller.IM_L.Own_Lock_or_Unlock::total            4                      
system.ruby.L1Cache_Controller.IS_L.Own_Lock_or_Unlock |           1     25.00%     25.00% |           1     25.00%     50.00% |           1     25.00%     75.00% |           1     25.00%    100.00% |           0      0.00%    100.00%
system.ruby.L1Cache_Controller.IS_L.Own_Lock_or_Unlock::total            4                      
system.ruby.L2Cache_Controller.L1_GETS          24156      0.00%      0.00%
system.ruby.L2Cache_Controller.L1_GETX          21997      0.00%      0.00%
system.ruby.L2Cache_Controller.L1_INV            3178      0.00%      0.00%
system.ruby.L2Cache_Controller.L2_Replacement            3      0.00%      0.00%
system.ruby.L2Cache_Controller.Writeback_Shared_Data            2      0.00%      0.00%
system.ruby.L2Cache_Controller.Writeback_All_Tokens        38576      0.00%      0.00%
system.ruby.L2Cache_Controller.Persistent_GETX          463      0.00%      0.00%
system.ruby.L2Cache_Controller.Persistent_GETS          759      0.00%      0.00%
system.ruby.L2Cache_Controller.Own_Lock_or_Unlock         1222      0.00%      0.00%
system.ruby.L2Cache_Controller.NP.L1_GETS        15293      0.00%      0.00%
system.ruby.L2Cache_Controller.NP.L1_GETX        12309      0.00%      0.00%
system.ruby.L2Cache_Controller.NP.L1_INV         3158      0.00%      0.00%
system.ruby.L2Cache_Controller.NP.Writeback_All_Tokens        20804      0.00%      0.00%
system.ruby.L2Cache_Controller.NP.Own_Lock_or_Unlock         1209      0.00%      0.00%
system.ruby.L2Cache_Controller.I.L1_GETS           10      0.00%      0.00%
system.ruby.L2Cache_Controller.I.L1_GETX            2      0.00%      0.00%
system.ruby.L2Cache_Controller.I.L1_INV             8      0.00%      0.00%
system.ruby.L2Cache_Controller.I.Writeback_All_Tokens         9547      0.00%      0.00%
system.ruby.L2Cache_Controller.I.Persistent_GETX            4      0.00%      0.00%
system.ruby.L2Cache_Controller.I.Persistent_GETS            9      0.00%      0.00%
system.ruby.L2Cache_Controller.O.L1_GETS            2      0.00%      0.00%
system.ruby.L2Cache_Controller.O.L1_GETX          197      0.00%      0.00%
system.ruby.L2Cache_Controller.O.Writeback_Shared_Data            2      0.00%      0.00%
system.ruby.L2Cache_Controller.O.Writeback_All_Tokens         8225      0.00%      0.00%
system.ruby.L2Cache_Controller.M.L1_GETS         8847      0.00%      0.00%
system.ruby.L2Cache_Controller.M.L1_GETX         9485      0.00%      0.00%
system.ruby.L2Cache_Controller.M.L2_Replacement            3      0.00%      0.00%
system.ruby.L2Cache_Controller.I_L.L1_GETS            4      0.00%      0.00%
system.ruby.L2Cache_Controller.I_L.L1_GETX            4      0.00%      0.00%
system.ruby.L2Cache_Controller.I_L.L1_INV           12      0.00%      0.00%
system.ruby.L2Cache_Controller.I_L.Persistent_GETX          459      0.00%      0.00%
system.ruby.L2Cache_Controller.I_L.Persistent_GETS          750      0.00%      0.00%
system.ruby.L2Cache_Controller.I_L.Own_Lock_or_Unlock           13      0.00%      0.00%

---------- End Simulation Statistics   ----------
