
---------- Begin Simulation Statistics ----------
sim_seconds                                  0.004958                       # Number of seconds simulated
sim_ticks                                  4957908000                       # Number of ticks simulated
final_tick                                 4957908000                       # Number of ticks from beginning of simulation (restored from checkpoints and never reset)
sim_freq                                 1000000000000                       # Frequency of simulated ticks
host_inst_rate                                  50017                       # Simulator instruction rate (inst/s)
host_op_rate                                    99931                       # Simulator op (including micro ops) rate (op/s)
host_tick_rate                               18622800                       # Simulator tick rate (ticks/s)
host_mem_usage                                 849888                       # Number of bytes of host memory used
host_seconds                                   266.23                       # Real time elapsed on the host
sim_insts                                    13315974                       # Number of instructions simulated
sim_ops                                      26604524                       # Number of ops (including micro ops) simulated
system.voltage_domain.voltage                       1                       # Voltage in Volts
system.clk_domain.clock                          1000                       # Clock period in ticks
system.mem_ctrls.pwrStateResidencyTicks::UNDEFINED   4957908000                       # Cumulative time (in ticks) in various power states
system.mem_ctrls.bytes_read::ruby.dir_cntrl0      1190848                       # Number of bytes read from this memory
system.mem_ctrls.bytes_read::total            1190848                       # Number of bytes read from this memory
system.mem_ctrls.bytes_written::ruby.dir_cntrl0          192                       # Number of bytes written to this memory
system.mem_ctrls.bytes_written::total             192                       # Number of bytes written to this memory
system.mem_ctrls.num_reads::ruby.dir_cntrl0        18607                       # Number of read requests responded to by this memory
system.mem_ctrls.num_reads::total               18607                       # Number of read requests responded to by this memory
system.mem_ctrls.num_writes::ruby.dir_cntrl0            3                       # Number of write requests responded to by this memory
system.mem_ctrls.num_writes::total                  3                       # Number of write requests responded to by this memory
system.mem_ctrls.bw_read::ruby.dir_cntrl0    240191629                       # Total read bandwidth from this memory (bytes/s)
system.mem_ctrls.bw_read::total             240191629                       # Total read bandwidth from this memory (bytes/s)
system.mem_ctrls.bw_write::ruby.dir_cntrl0        38726                       # Write bandwidth from this memory (bytes/s)
system.mem_ctrls.bw_write::total                38726                       # Write bandwidth from this memory (bytes/s)
system.mem_ctrls.bw_total::ruby.dir_cntrl0    240230355                       # Total bandwidth to/from this memory (bytes/s)
system.mem_ctrls.bw_total::total            240230355                       # Total bandwidth to/from this memory (bytes/s)
system.mem_ctrls.readReqs                       18607                       # Number of read requests accepted
system.mem_ctrls.avgNetLat                       0.00                       # Average network latency to DRAM controller
system.mem_ctrls.writeReqs                          3                       # Number of write requests accepted
system.mem_ctrls.readBursts                     18607                       # Number of DRAM read bursts, including those serviced by the write queue
system.mem_ctrls.writeBursts                        3                       # Number of DRAM write bursts, including those merged in the write queue
system.mem_ctrls.bytesReadDRAM                1190848                       # Total number of bytes read from DRAM
system.mem_ctrls.bytesReadWrQ                       0                       # Total number of bytes read from write queue
system.mem_ctrls.bytesWritten                       0                       # Total number of bytes written to DRAM
system.mem_ctrls.bytesReadSys                 1190848                       # Total read bytes from the system interface side
system.mem_ctrls.bytesWrittenSys                  192                       # Total written bytes from the system interface side
system.mem_ctrls.servicedByWrQ                      0                       # Number of DRAM read bursts serviced by the write queue
system.mem_ctrls.mergedWrBursts                     0                       # Number of DRAM write bursts merged with an existing one
system.mem_ctrls.neitherReadNorWriteReqs            0                       # Number of requests that are neither read nor write
system.mem_ctrls.perBankRdBursts::0              1187                       # Per bank write bursts
system.mem_ctrls.perBankRdBursts::1              1168                       # Per bank write bursts
system.mem_ctrls.perBankRdBursts::2              1078                       # Per bank write bursts
system.mem_ctrls.perBankRdBursts::3               909                       # Per bank write bursts
system.mem_ctrls.perBankRdBursts::4               870                       # Per bank write bursts
system.mem_ctrls.perBankRdBursts::5              1147                       # Per bank write bursts
system.mem_ctrls.perBankRdBursts::6              1310                       # Per bank write bursts
system.mem_ctrls.perBankRdBursts::7              1390                       # Per bank write bursts
system.mem_ctrls.perBankRdBursts::8              1393                       # Per bank write bursts
system.mem_ctrls.perBankRdBursts::9              1335                       # Per bank write bursts
system.mem_ctrls.perBankRdBursts::10             1266                       # Per bank write bursts
system.mem_ctrls.perBankRdBursts::11             1297                       # Per bank write bursts
system.mem_ctrls.perBankRdBursts::12             1004                       # Per bank write bursts
system.mem_ctrls.perBankRdBursts::13             1025                       # Per bank write bursts
system.mem_ctrls.perBankRdBursts::14             1098                       # Per bank write bursts
system.mem_ctrls.perBankRdBursts::15             1130                       # Per bank write bursts
system.mem_ctrls.perBankWrBursts::0                 0                       # Per bank write bursts
system.mem_ctrls.perBankWrBursts::1                 0                       # Per bank write bursts
system.mem_ctrls.perBankWrBursts::2                 0                       # Per bank write bursts
system.mem_ctrls.perBankWrBursts::3                 0                       # Per bank write bursts
system.mem_ctrls.perBankWrBursts::4                 0                       # Per bank write bursts
system.mem_ctrls.perBankWrBursts::5                 0                       # Per bank write bursts
system.mem_ctrls.perBankWrBursts::6                 0                       # Per bank write bursts
system.mem_ctrls.perBankWrBursts::7                 0                       # Per bank write bursts
system.mem_ctrls.perBankWrBursts::8                 0                       # Per bank write bursts
system.mem_ctrls.perBankWrBursts::9                 0                       # Per bank write bursts
system.mem_ctrls.perBankWrBursts::10                0                       # Per bank write bursts
system.mem_ctrls.perBankWrBursts::11                0                       # Per bank write bursts
system.mem_ctrls.perBankWrBursts::12                0                       # Per bank write bursts
system.mem_ctrls.perBankWrBursts::13                0                       # Per bank write bursts
system.mem_ctrls.perBankWrBursts::14                0                       # Per bank write bursts
system.mem_ctrls.perBankWrBursts::15                0                       # Per bank write bursts
system.mem_ctrls.numRdRetry                         0                       # Number of times read queue was full causing retry
system.mem_ctrls.numWrRetry                         0                       # Number of times write queue was full causing retry
system.mem_ctrls.totGap                    4957842500                       # Total gap between requests
system.mem_ctrls.readPktSize::0                     0                       # Read request sizes (log2)
system.mem_ctrls.readPktSize::1                     0                       # Read request sizes (log2)
system.mem_ctrls.readPktSize::2                     0                       # Read request sizes (log2)
system.mem_ctrls.readPktSize::3                     0                       # Read request sizes (log2)
system.mem_ctrls.readPktSize::4                     0                       # Read request sizes (log2)
system.mem_ctrls.readPktSize::5                     0                       # Read request sizes (log2)
system.mem_ctrls.readPktSize::6                 18607                       # Read request sizes (log2)
system.mem_ctrls.writePktSize::0                    0                       # Write request sizes (log2)
system.mem_ctrls.writePktSize::1                    0                       # Write request sizes (log2)
system.mem_ctrls.writePktSize::2                    0                       # Write request sizes (log2)
system.mem_ctrls.writePktSize::3                    0                       # Write request sizes (log2)
system.mem_ctrls.writePktSize::4                    0                       # Write request sizes (log2)
system.mem_ctrls.writePktSize::5                    0                       # Write request sizes (log2)
system.mem_ctrls.writePktSize::6                    3                       # Write request sizes (log2)
system.mem_ctrls.rdQLenPdf::0                    6125                       # What read queue length does an incoming req see
system.mem_ctrls.rdQLenPdf::1                    2768                       # What read queue length does an incoming req see
system.mem_ctrls.rdQLenPdf::2                    2520                       # What read queue length does an incoming req see
system.mem_ctrls.rdQLenPdf::3                    1865                       # What read queue length does an incoming req see
system.mem_ctrls.rdQLenPdf::4                    1348                       # What read queue length does an incoming req see
system.mem_ctrls.rdQLenPdf::5                    1027                       # What read queue length does an incoming req see
system.mem_ctrls.rdQLenPdf::6                     893                       # What read queue length does an incoming req see
system.mem_ctrls.rdQLenPdf::7                     745                       # What read queue length does an incoming req see
system.mem_ctrls.rdQLenPdf::8                     521                       # What read queue length does an incoming req see
system.mem_ctrls.rdQLenPdf::9                     339                       # What read queue length does an incoming req see
system.mem_ctrls.rdQLenPdf::10                    227                       # What read queue length does an incoming req see
system.mem_ctrls.rdQLenPdf::11                    128                       # What read queue length does an incoming req see
system.mem_ctrls.rdQLenPdf::12                     60                       # What read queue length does an incoming req see
system.mem_ctrls.rdQLenPdf::13                     25                       # What read queue length does an incoming req see
system.mem_ctrls.rdQLenPdf::14                     12                       # What read queue length does an incoming req see
system.mem_ctrls.rdQLenPdf::15                      4                       # What read queue length does an incoming req see
system.mem_ctrls.rdQLenPdf::16                      0                       # What read queue length does an incoming req see
system.mem_ctrls.rdQLenPdf::17                      0                       # What read queue length does an incoming req see
system.mem_ctrls.rdQLenPdf::18                      0                       # What read queue length does an incoming req see
system.mem_ctrls.rdQLenPdf::19                      0                       # What read queue length does an incoming req see
system.mem_ctrls.rdQLenPdf::20                      0                       # What read queue length does an incoming req see
system.mem_ctrls.rdQLenPdf::21                      0                       # What read queue length does an incoming req see
system.mem_ctrls.rdQLenPdf::22                      0                       # What read queue length does an incoming req see
system.mem_ctrls.rdQLenPdf::23                      0                       # What read queue length does an incoming req see
system.mem_ctrls.rdQLenPdf::24                      0                       # What read queue length does an incoming req see
system.mem_ctrls.rdQLenPdf::25                      0                       # What read queue length does an incoming req see
system.mem_ctrls.rdQLenPdf::26                      0                       # What read queue length does an incoming req see
system.mem_ctrls.rdQLenPdf::27                      0                       # What read queue length does an incoming req see
system.mem_ctrls.rdQLenPdf::28                      0                       # What read queue length does an incoming req see
system.mem_ctrls.rdQLenPdf::29                      0                       # What read queue length does an incoming req see
system.mem_ctrls.rdQLenPdf::30                      0                       # What read queue length does an incoming req see
system.mem_ctrls.rdQLenPdf::31                      0                       # What read queue length does an incoming req see
system.mem_ctrls.wrQLenPdf::0                       1                       # What write queue length does an incoming req see
system.mem_ctrls.wrQLenPdf::1                       1                       # What write queue length does an incoming req see
system.mem_ctrls.wrQLenPdf::2                       1                       # What write queue length does an incoming req see
system.mem_ctrls.wrQLenPdf::3                       0                       # What write queue length does an incoming req see
system.mem_ctrls.wrQLenPdf::4                       0                       # What write queue length does an incoming req see
system.mem_ctrls.wrQLenPdf::5                       0                       # What write queue length does an incoming req see
system.mem_ctrls.wrQLenPdf::6                       0                       # What write queue length does an incoming req see
system.mem_ctrls.wrQLenPdf::7                       0                       # What write queue length does an incoming req see
system.mem_ctrls.wrQLenPdf::8                       0                       # What write queue length does an incoming req see
system.mem_ctrls.wrQLenPdf::9                       0                       # What write queue length does an incoming req see
system.mem_ctrls.wrQLenPdf::10                      0                       # What write queue length does an incoming req see
system.mem_ctrls.wrQLenPdf::11                      0                       # What write queue length does an incoming req see
system.mem_ctrls.wrQLenPdf::12                      0                       # What write queue length does an incoming req see
system.mem_ctrls.wrQLenPdf::13                      0                       # What write queue length does an incoming req see
system.mem_ctrls.wrQLenPdf::14                      0                       # What write queue length does an incoming req see
system.mem_ctrls.wrQLenPdf::15                      0                       # What write queue length does an incoming req see
system.mem_ctrls.wrQLenPdf::16                      0                       # What write queue length does an incoming req see
system.mem_ctrls.wrQLenPdf::17                      0                       # What write queue length does an incoming req see
system.mem_ctrls.wrQLenPdf::18                      0                       # What write queue length does an incoming req see
system.mem_ctrls.wrQLenPdf::19                      0                       # What write queue length does an incoming req see
system.mem_ctrls.wrQLenPdf::20                      0                       # What write queue length does an incoming req see
system.mem_ctrls.wrQLenPdf::21                      0                       # What write queue length does an incoming req see
system.mem_ctrls.wrQLenPdf::22                      0                       # What write queue length does an incoming req see
system.mem_ctrls.wrQLenPdf::23                      0                       # What write queue length does an incoming req see
system.mem_ctrls.wrQLenPdf::24                      0                       # What write queue length does an incoming req see
system.mem_ctrls.wrQLenPdf::25                      0                       # What write queue length does an incoming req see
system.mem_ctrls.wrQLenPdf::26                      0                       # What write queue length does an incoming req see
system.mem_ctrls.wrQLenPdf::27                      0                       # What write queue length does an incoming req see
system.mem_ctrls.wrQLenPdf::28                      0                       # What write queue length does an incoming req see
system.mem_ctrls.wrQLenPdf::29                      0                       # What write queue length does an incoming req see
system.mem_ctrls.wrQLenPdf::30                      0                       # What write queue length does an incoming req see
system.mem_ctrls.wrQLenPdf::31                      0                       # What write queue length does an incoming req see
system.mem_ctrls.wrQLenPdf::32                      0                       # What write queue length does an incoming req see
system.mem_ctrls.wrQLenPdf::33                      0                       # What write queue length does an incoming req see
system.mem_ctrls.wrQLenPdf::34                      0                       # What write queue length does an incoming req see
system.mem_ctrls.wrQLenPdf::35                      0                       # What write queue length does an incoming req see
system.mem_ctrls.wrQLenPdf::36                      0                       # What write queue length does an incoming req see
system.mem_ctrls.wrQLenPdf::37                      0                       # What write queue length does an incoming req see
system.mem_ctrls.wrQLenPdf::38                      0                       # What write queue length does an incoming req see
system.mem_ctrls.wrQLenPdf::39                      0                       # What write queue length does an incoming req see
system.mem_ctrls.wrQLenPdf::40                      0                       # What write queue length does an incoming req see
system.mem_ctrls.wrQLenPdf::41                      0                       # What write queue length does an incoming req see
system.mem_ctrls.wrQLenPdf::42                      0                       # What write queue length does an incoming req see
system.mem_ctrls.wrQLenPdf::43                      0                       # What write queue length does an incoming req see
system.mem_ctrls.wrQLenPdf::44                      0                       # What write queue length does an incoming req see
system.mem_ctrls.wrQLenPdf::45                      0                       # What write queue length does an incoming req see
system.mem_ctrls.wrQLenPdf::46                      0                       # What write queue length does an incoming req see
system.mem_ctrls.wrQLenPdf::47                      0                       # What write queue length does an incoming req see
system.mem_ctrls.wrQLenPdf::48                      0                       # What write queue length does an incoming req see
system.mem_ctrls.wrQLenPdf::49                      0                       # What write queue length does an incoming req see
system.mem_ctrls.wrQLenPdf::50                      0                       # What write queue length does an incoming req see
system.mem_ctrls.wrQLenPdf::51                      0                       # What write queue length does an incoming req see
system.mem_ctrls.wrQLenPdf::52                      0                       # What write queue length does an incoming req see
system.mem_ctrls.wrQLenPdf::53                      0                       # What write queue length does an incoming req see
system.mem_ctrls.wrQLenPdf::54                      0                       # What write queue length does an incoming req see
system.mem_ctrls.wrQLenPdf::55                      0                       # What write queue length does an incoming req see
system.mem_ctrls.wrQLenPdf::56                      0                       # What write queue length does an incoming req see
system.mem_ctrls.wrQLenPdf::57                      0                       # What write queue length does an incoming req see
system.mem_ctrls.wrQLenPdf::58                      0                       # What write queue length does an incoming req see
system.mem_ctrls.wrQLenPdf::59                      0                       # What write queue length does an incoming req see
system.mem_ctrls.wrQLenPdf::60                      0                       # What write queue length does an incoming req see
system.mem_ctrls.wrQLenPdf::61                      0                       # What write queue length does an incoming req see
system.mem_ctrls.wrQLenPdf::62                      0                       # What write queue length does an incoming req see
system.mem_ctrls.wrQLenPdf::63                      0                       # What write queue length does an incoming req see
system.mem_ctrls.bytesPerActivate::samples         4777                       # Bytes accessed per row activation
system.mem_ctrls.bytesPerActivate::mean    248.818924                       # Bytes accessed per row activation
system.mem_ctrls.bytesPerActivate::gmean   139.847628                       # Bytes accessed per row activation
system.mem_ctrls.bytesPerActivate::stdev   313.140358                       # Bytes accessed per row activation
system.mem_ctrls.bytesPerActivate::0-127         2439     51.06%     51.06% # Bytes accessed per row activation
system.mem_ctrls.bytesPerActivate::128-255         1086     22.73%     73.79% # Bytes accessed per row activation
system.mem_ctrls.bytesPerActivate::256-383          315      6.59%     80.39% # Bytes accessed per row activation
system.mem_ctrls.bytesPerActivate::384-511          139      2.91%     83.29% # Bytes accessed per row activation
system.mem_ctrls.bytesPerActivate::512-639          109      2.28%     85.58% # Bytes accessed per row activation
system.mem_ctrls.bytesPerActivate::640-767           66      1.38%     86.96% # Bytes accessed per row activation
system.mem_ctrls.bytesPerActivate::768-895           58      1.21%     88.17% # Bytes accessed per row activation
system.mem_ctrls.bytesPerActivate::896-1023           65      1.36%     89.53% # Bytes accessed per row activation
system.mem_ctrls.bytesPerActivate::1024-1151          500     10.47%    100.00% # Bytes accessed per row activation
system.mem_ctrls.bytesPerActivate::total         4777                       # Bytes accessed per row activation
system.mem_ctrls.totQLat                    480404040                       # Total ticks spent queuing
system.mem_ctrls.totMemAccLat               829285290                       # Total ticks spent from burst creation until serviced by the DRAM
system.mem_ctrls.totBusLat                   93035000                       # Total ticks spent in databus transfers
system.mem_ctrls.avgQLat                     25818.46                       # Average queueing delay per DRAM burst
system.mem_ctrls.avgBusLat                    5000.00                       # Average bus latency per DRAM burst
system.mem_ctrls.avgMemAccLat                44568.46                       # Average memory access latency per DRAM burst
system.mem_ctrls.avgRdBW                       240.19                       # Average DRAM read bandwidth in MiByte/s
system.mem_ctrls.avgWrBW                         0.00                       # Average achieved write bandwidth in MiByte/s
system.mem_ctrls.avgRdBWSys                    240.19                       # Average system read bandwidth in MiByte/s
system.mem_ctrls.avgWrBWSys                      0.04                       # Average system write bandwidth in MiByte/s
system.mem_ctrls.peakBW                      12800.00                       # Theoretical peak bandwidth in MiByte/s
system.mem_ctrls.busUtil                         1.88                       # Data bus utilization in percentage
system.mem_ctrls.busUtilRead                     1.88                       # Data bus utilization in percentage for reads
system.mem_ctrls.busUtilWrite                    0.00                       # Data bus utilization in percentage for writes
system.mem_ctrls.avgRdQLen                       1.15                       # Average read queue length when enqueuing
system.mem_ctrls.avgWrQLen                       2.02                       # Average write queue length when enqueuing
system.mem_ctrls.readRowHits                    13819                       # Number of row buffer hits during reads
system.mem_ctrls.writeRowHits                       0                       # Number of row buffer hits during writes
system.mem_ctrls.readRowHitRate                 74.27                       # Row buffer hit rate for reads
system.mem_ctrls.writeRowHitRate                 0.00                       # Row buffer hit rate for writes
system.mem_ctrls.avgGap                     266407.44                       # Average gap between requests
system.mem_ctrls.pageHitRate                    74.26                       # Row buffer hit rate, read and write combined
system.mem_ctrls_0.actEnergy                 16536240                       # Energy for activate commands per rank (pJ)
system.mem_ctrls_0.preEnergy                  8770245                       # Energy for precharge commands per rank (pJ)
system.mem_ctrls_0.readEnergy                64681260                       # Energy for read commands per rank (pJ)
system.mem_ctrls_0.writeEnergy                      0                       # Energy for write commands per rank (pJ)
system.mem_ctrls_0.refreshEnergy         46712640.000000                       # Energy for refresh commands per rank (pJ)
system.mem_ctrls_0.actBackEnergy            103754820                       # Energy for active background per rank (pJ)
system.mem_ctrls_0.preBackEnergy              2241120                       # Energy for precharge background per rank (pJ)
system.mem_ctrls_0.actPowerDownEnergy       115417590                       # Energy for active power-down per rank (pJ)
system.mem_ctrls_0.prePowerDownEnergy        22978560                       # Energy for precharge power-down per rank (pJ)
system.mem_ctrls_0.selfRefreshEnergy       1062647580                       # Energy for self refresh per rank (pJ)
system.mem_ctrls_0.totalEnergy             1443740055                       # Total energy per rank (pJ)
system.mem_ctrls_0.averagePower            291.199400                       # Core power per rank (mW)
system.mem_ctrls_0.totalIdleTime           4724498279                       # Total Idle time Per DRAM Rank
system.mem_ctrls_0.memoryStateTime::IDLE      2662000                       # Time in different power states
system.mem_ctrls_0.memoryStateTime::REF      19814000                       # Time in different power states
system.mem_ctrls_0.memoryStateTime::SREF   4411585750                       # Time in different power states
system.mem_ctrls_0.memoryStateTime::PRE_PDN     59833000                       # Time in different power states
system.mem_ctrls_0.memoryStateTime::ACT     210903471                       # Time in different power states
system.mem_ctrls_0.memoryStateTime::ACT_PDN    253109779                       # Time in different power states
system.mem_ctrls_1.actEnergy                 17650080                       # Energy for activate commands per rank (pJ)
system.mem_ctrls_1.preEnergy                  9358470                       # Energy for precharge commands per rank (pJ)
system.mem_ctrls_1.readEnergy                68172720                       # Energy for read commands per rank (pJ)
system.mem_ctrls_1.writeEnergy                      0                       # Energy for write commands per rank (pJ)
system.mem_ctrls_1.refreshEnergy         43024800.000000                       # Energy for refresh commands per rank (pJ)
system.mem_ctrls_1.actBackEnergy            103998210                       # Energy for active background per rank (pJ)
system.mem_ctrls_1.preBackEnergy              1975200                       # Energy for precharge background per rank (pJ)
system.mem_ctrls_1.actPowerDownEnergy       108898500                       # Energy for active power-down per rank (pJ)
system.mem_ctrls_1.prePowerDownEnergy        16164000                       # Energy for precharge power-down per rank (pJ)
system.mem_ctrls_1.selfRefreshEnergy       1069271400                       # Energy for self refresh per rank (pJ)
system.mem_ctrls_1.totalEnergy             1438513380                       # Total energy per rank (pJ)
system.mem_ctrls_1.averagePower            290.145191                       # Core power per rank (mW)
system.mem_ctrls_1.totalIdleTime           4724571017                       # Total Idle time Per DRAM Rank
system.mem_ctrls_1.memoryStateTime::IDLE      2013251                       # Time in different power states
system.mem_ctrls_1.memoryStateTime::REF      18236000                       # Time in different power states
system.mem_ctrls_1.memoryStateTime::SREF   4443793250                       # Time in different power states
system.mem_ctrls_1.memoryStateTime::PRE_PDN     42098750                       # Time in different power states
system.mem_ctrls_1.memoryStateTime::ACT     212950482                       # Time in different power states
system.mem_ctrls_1.memoryStateTime::ACT_PDN    238816267                       # Time in different power states
system.pwrStateResidencyTicks::UNDEFINED   4957908000                       # Cumulative time (in ticks) in various power states
system.cpu0.branchPred.lookups                1323284                       # Number of BP lookups
system.cpu0.branchPred.condPredicted          1323284                       # Number of conditional branches predicted
system.cpu0.branchPred.condIncorrect             8320                       # Number of conditional branches incorrect
system.cpu0.branchPred.BTBLookups             1195342                       # Number of BTB lookups
system.cpu0.branchPred.BTBHits                      0                       # Number of BTB hits
system.cpu0.branchPred.BTBCorrect                   0                       # Number of correct BTB predictions (this stat may not work properly.
system.cpu0.branchPred.BTBHitPct             0.000000                       # BTB Hit Percentage
system.cpu0.branchPred.usedRAS                 107483                       # Number of times the RAS was used to get a target.
system.cpu0.branchPred.RASInCorrect               452                       # Number of incorrect RAS predictions.
system.cpu0.branchPred.indirectLookups        1195342                       # Number of indirect predictor lookups.
system.cpu0.branchPred.indirectHits            696499                       # Number of indirect target hits.
system.cpu0.branchPred.indirectMisses          498843                       # Number of indirect misses.
system.cpu0.branchPredindirectMispredicted         4234                       # Number of mispredicted indirect branches.
system.cpu_voltage_domain.voltage                   1                       # Voltage in Volts
system.cpu0.clk_domain.clock                      500                       # Clock period in ticks
system.cpu0.dtb.walker.pwrStateResidencyTicks::UNDEFINED   4957908000                       # Cumulative time (in ticks) in various power states
system.cpu0.apic_clk_domain.clock                8000                       # Clock period in ticks
system.cpu0.interrupts.pwrStateResidencyTicks::UNDEFINED   4957908000                       # Cumulative time (in ticks) in various power states
system.cpu0.itb.walker.pwrStateResidencyTicks::UNDEFINED   4957908000                       # Cumulative time (in ticks) in various power states
system.cpu0.workload.num_syscalls              105066                       # Number of system calls
system.cpu0.pwrStateResidencyTicks::ON     4957908000                       # Cumulative time (in ticks) in various power states
system.cpu0.numCycles                         9915817                       # number of cpu cycles simulated
system.cpu0.numWorkItemsStarted                     0                       # number of work items this cpu started
system.cpu0.numWorkItemsCompleted                   0                       # number of work items this cpu completed
system.cpu0.fetch.icacheStallCycles            716375                       # Number of cycles fetch is stalled on an Icache miss
system.cpu0.fetch.Insts                       3822044                       # Number of instructions fetch has processed
system.cpu0.fetch.Branches                    1323284                       # Number of branches that fetch encountered
system.cpu0.fetch.predictedBranches            803982                       # Number of branches that fetch has predicted taken
system.cpu0.fetch.Cycles                      9094210                       # Number of cycles fetch has run and was not squashing or blocked
system.cpu0.fetch.SquashCycles                  16793                       # Number of cycles fetch has spent squashing
system.cpu0.fetch.MiscStallCycles               10393                       # Number of cycles fetch has spent waiting on interrupts, or bad addresses, or out of MSHRs
system.cpu0.fetch.PendingTrapStallCycles          451                       # Number of stall cycles due to pending traps
system.cpu0.fetch.PendingQuiesceStallCycles           14                       # Number of stall cycles due to pending quiesce instructions
system.cpu0.fetch.IcacheWaitRetryStallCycles         6499                       # Number of stall cycles due to full MSHR
system.cpu0.fetch.CacheLines                   686515                       # Number of cache lines fetched
system.cpu0.fetch.IcacheSquashes                 2671                       # Number of outstanding Icache misses that were squashed
system.cpu0.fetch.rateDist::samples           9836338                       # Number of instructions fetched each cycle (Total)
system.cpu0.fetch.rateDist::mean             0.770767                       # Number of instructions fetched each cycle (Total)
system.cpu0.fetch.rateDist::stdev            2.123150                       # Number of instructions fetched each cycle (Total)
system.cpu0.fetch.rateDist::underflows              0      0.00%      0.00% # Number of instructions fetched each cycle (Total)
system.cpu0.fetch.rateDist::0                 8528221     86.70%     86.70% # Number of instructions fetched each cycle (Total)
system.cpu0.fetch.rateDist::1                    8644      0.09%     86.79% # Number of instructions fetched each cycle (Total)
system.cpu0.fetch.rateDist::2                   56187      0.57%     87.36% # Number of instructions fetched each cycle (Total)
system.cpu0.fetch.rateDist::3                  222804      2.27%     89.63% # Number of instructions fetched each cycle (Total)
system.cpu0.fetch.rateDist::4                  254045      2.58%     92.21% # Number of instructions fetched each cycle (Total)
system.cpu0.fetch.rateDist::5                    7378      0.08%     92.28% # Number of instructions fetched each cycle (Total)
system.cpu0.fetch.rateDist::6                   58806      0.60%     92.88% # Number of instructions fetched each cycle (Total)
system.cpu0.fetch.rateDist::7                  215835      2.19%     95.08% # Number of instructions fetched each cycle (Total)
system.cpu0.fetch.rateDist::8                  484418      4.92%    100.00% # Number of instructions fetched each cycle (Total)
system.cpu0.fetch.rateDist::overflows               0      0.00%    100.00% # Number of instructions fetched each cycle (Total)
system.cpu0.fetch.rateDist::min_value               0                       # Number of instructions fetched each cycle (Total)
system.cpu0.fetch.rateDist::max_value               8                       # Number of instructions fetched each cycle (Total)
system.cpu0.fetch.rateDist::total             9836338                       # Number of instructions fetched each cycle (Total)
system.cpu0.fetch.branchRate                 0.133452                       # Number of branch fetches per cycle
system.cpu0.fetch.rate                       0.385449                       # Number of inst fetches per cycle
system.cpu0.decode.IdleCycles                  287369                       # Number of cycles decode is idle
system.cpu0.decode.BlockedCycles              8561383                       # Number of cycles decode is blocked
system.cpu0.decode.RunCycles                   468022                       # Number of cycles decode is running
system.cpu0.decode.UnblockCycles               511168                       # Number of cycles decode is unblocking
system.cpu0.decode.SquashCycles                  8396                       # Number of cycles decode is squashing
system.cpu0.decode.DecodedInsts               7502906                       # Number of instructions handled by decode
system.cpu0.rename.SquashCycles                  8396                       # Number of cycles rename is squashing
system.cpu0.rename.IdleCycles                  428096                       # Number of cycles rename is idle
system.cpu0.rename.BlockCycles                 764229                       # Number of cycles rename is blocking
system.cpu0.rename.serializeStallCycles       7108479                       # count of cycles rename stalled for serializing inst
system.cpu0.rename.RunCycles                   676615                       # Number of cycles rename is running
system.cpu0.rename.UnblockCycles               850523                       # Number of cycles rename is unblocking
system.cpu0.rename.RenamedInsts               7462373                       # Number of instructions processed by rename
system.cpu0.rename.ROBFullEvents               359183                       # Number of times rename has blocked due to ROB full
system.cpu0.rename.IQFullEvents                 13646                       # Number of times rename has blocked due to IQ full
system.cpu0.rename.LQFullEvents                138182                       # Number of times rename has blocked due to LQ full
system.cpu0.rename.SQFullEvents                 61234                       # Number of times rename has blocked due to SQ full
system.cpu0.rename.RenamedOperands            7916124                       # Number of destination operands rename has renamed
system.cpu0.rename.RenameLookups             17488708                       # Number of register rename lookups that rename has made
system.cpu0.rename.int_rename_lookups         8810710                       # Number of integer rename lookups
system.cpu0.rename.fp_rename_lookups            18533                       # Number of floating rename lookups
system.cpu0.rename.CommittedMaps              7443986                       # Number of HB maps that are committed
system.cpu0.rename.UndoneMaps                  472138                       # Number of HB maps that are undone due to squashing
system.cpu0.rename.serializingInsts            105101                       # count of serializing insts renamed
system.cpu0.rename.tempSerializingInsts        105105                       # count of temporary serializing insts renamed
system.cpu0.rename.skidInsts                  3090737                       # count of insts added to the skid buffer
system.cpu0.memDep0.insertedLoads             1010024                       # Number of loads inserted to the mem dependence unit.
system.cpu0.memDep0.insertedStores             134395                       # Number of stores inserted to the mem dependence unit.
system.cpu0.memDep0.conflictingLoads             7270                       # Number of conflicting loads.
system.cpu0.memDep0.conflictingStores             889                       # Number of conflicting stores.
system.cpu0.iq.iqInstsAdded                   7287616                       # Number of instructions added to the IQ (excludes non-spec)
system.cpu0.iq.iqNonSpecInstsAdded             105157                       # Number of non-speculative instructions added to the IQ
system.cpu0.iq.iqInstsIssued                  7400140                       # Number of instructions issued
system.cpu0.iq.iqSquashedInstsIssued             5976                       # Number of squashed instructions issued
system.cpu0.iq.iqSquashedInstsExamined         313777                       # Number of squashed instructions iterated over during squash; mainly for profiling
system.cpu0.iq.iqSquashedOperandsExamined       463692                       # Number of squashed operands that are examined and possibly removed from graph
system.cpu0.iq.iqSquashedNonSpecRemoved            91                       # Number of squashed non-spec instructions that were removed
system.cpu0.iq.issued_per_cycle::samples      9836338                       # Number of insts issued each cycle
system.cpu0.iq.issued_per_cycle::mean        0.752327                       # Number of insts issued each cycle
system.cpu0.iq.issued_per_cycle::stdev       1.634986                       # Number of insts issued each cycle
system.cpu0.iq.issued_per_cycle::underflows            0      0.00%      0.00% # Number of insts issued each cycle
system.cpu0.iq.issued_per_cycle::0            7427747     75.51%     75.51% # Number of insts issued each cycle
system.cpu0.iq.issued_per_cycle::1             749679      7.62%     83.13% # Number of insts issued each cycle
system.cpu0.iq.issued_per_cycle::2             360625      3.67%     86.80% # Number of insts issued each cycle
system.cpu0.iq.issued_per_cycle::3             430790      4.38%     91.18% # Number of insts issued each cycle
system.cpu0.iq.issued_per_cycle::4             253924      2.58%     93.76% # Number of insts issued each cycle
system.cpu0.iq.issued_per_cycle::5             200563      2.04%     95.80% # Number of insts issued each cycle
system.cpu0.iq.issued_per_cycle::6             284543      2.89%     98.69% # Number of insts issued each cycle
system.cpu0.iq.issued_per_cycle::7             116664      1.19%     99.88% # Number of insts issued each cycle
system.cpu0.iq.issued_per_cycle::8              11803      0.12%    100.00% # Number of insts issued each cycle
system.cpu0.iq.issued_per_cycle::overflows            0      0.00%    100.00% # Number of insts issued each cycle
system.cpu0.iq.issued_per_cycle::min_value            0                       # Number of insts issued each cycle
system.cpu0.iq.issued_per_cycle::max_value            8                       # Number of insts issued each cycle
system.cpu0.iq.issued_per_cycle::total        9836338                       # Number of insts issued each cycle
system.cpu0.iq.fu_full::No_OpClass                  0      0.00%      0.00% # attempts to use FU when none available
system.cpu0.iq.fu_full::IntAlu                  57665     77.31%     77.31% # attempts to use FU when none available
system.cpu0.iq.fu_full::IntMult                     0      0.00%     77.31% # attempts to use FU when none available
system.cpu0.iq.fu_full::IntDiv                      0      0.00%     77.31% # attempts to use FU when none available
system.cpu0.iq.fu_full::FloatAdd                   46      0.06%     77.37% # attempts to use FU when none available
system.cpu0.iq.fu_full::FloatCmp                    0      0.00%     77.37% # attempts to use FU when none available
system.cpu0.iq.fu_full::FloatCvt                    0      0.00%     77.37% # attempts to use FU when none available
system.cpu0.iq.fu_full::FloatMult                   0      0.00%     77.37% # attempts to use FU when none available
system.cpu0.iq.fu_full::FloatMultAcc                0      0.00%     77.37% # attempts to use FU when none available
system.cpu0.iq.fu_full::FloatDiv                    0      0.00%     77.37% # attempts to use FU when none available
system.cpu0.iq.fu_full::FloatMisc                   0      0.00%     77.37% # attempts to use FU when none available
system.cpu0.iq.fu_full::FloatSqrt                   0      0.00%     77.37% # attempts to use FU when none available
system.cpu0.iq.fu_full::SimdAdd                     0      0.00%     77.37% # attempts to use FU when none available
system.cpu0.iq.fu_full::SimdAddAcc                  0      0.00%     77.37% # attempts to use FU when none available
system.cpu0.iq.fu_full::SimdAlu                     0      0.00%     77.37% # attempts to use FU when none available
system.cpu0.iq.fu_full::SimdCmp                     0      0.00%     77.37% # attempts to use FU when none available
system.cpu0.iq.fu_full::SimdCvt                     0      0.00%     77.37% # attempts to use FU when none available
system.cpu0.iq.fu_full::SimdMisc                    0      0.00%     77.37% # attempts to use FU when none available
system.cpu0.iq.fu_full::SimdMult                    0      0.00%     77.37% # attempts to use FU when none available
system.cpu0.iq.fu_full::SimdMultAcc                 0      0.00%     77.37% # attempts to use FU when none available
system.cpu0.iq.fu_full::SimdShift                   0      0.00%     77.37% # attempts to use FU when none available
system.cpu0.iq.fu_full::SimdShiftAcc                0      0.00%     77.37% # attempts to use FU when none available
system.cpu0.iq.fu_full::SimdSqrt                    0      0.00%     77.37% # attempts to use FU when none available
system.cpu0.iq.fu_full::SimdFloatAdd                0      0.00%     77.37% # attempts to use FU when none available
system.cpu0.iq.fu_full::SimdFloatAlu                0      0.00%     77.37% # attempts to use FU when none available
system.cpu0.iq.fu_full::SimdFloatCmp                0      0.00%     77.37% # attempts to use FU when none available
system.cpu0.iq.fu_full::SimdFloatCvt                0      0.00%     77.37% # attempts to use FU when none available
system.cpu0.iq.fu_full::SimdFloatDiv                0      0.00%     77.37% # attempts to use FU when none available
system.cpu0.iq.fu_full::SimdFloatMisc               0      0.00%     77.37% # attempts to use FU when none available
system.cpu0.iq.fu_full::SimdFloatMult               0      0.00%     77.37% # attempts to use FU when none available
system.cpu0.iq.fu_full::SimdFloatMultAcc            0      0.00%     77.37% # attempts to use FU when none available
system.cpu0.iq.fu_full::SimdFloatSqrt               0      0.00%     77.37% # attempts to use FU when none available
system.cpu0.iq.fu_full::MemRead                 15966     21.41%     98.78% # attempts to use FU when none available
system.cpu0.iq.fu_full::MemWrite                  761      1.02%     99.80% # attempts to use FU when none available
system.cpu0.iq.fu_full::FloatMemRead               98      0.13%     99.93% # attempts to use FU when none available
system.cpu0.iq.fu_full::FloatMemWrite              52      0.07%    100.00% # attempts to use FU when none available
system.cpu0.iq.fu_full::IprAccess                   0      0.00%    100.00% # attempts to use FU when none available
system.cpu0.iq.fu_full::InstPrefetch                0      0.00%    100.00% # attempts to use FU when none available
system.cpu0.iq.FU_type_0::No_OpClass             3915      0.05%      0.05% # Type of FU issued
system.cpu0.iq.FU_type_0::IntAlu              6097481     82.40%     82.45% # Type of FU issued
system.cpu0.iq.FU_type_0::IntMult               52566      0.71%     83.16% # Type of FU issued
system.cpu0.iq.FU_type_0::IntDiv                 1208      0.02%     83.18% # Type of FU issued
system.cpu0.iq.FU_type_0::FloatAdd               4295      0.06%     83.23% # Type of FU issued
system.cpu0.iq.FU_type_0::FloatCmp                  0      0.00%     83.23% # Type of FU issued
system.cpu0.iq.FU_type_0::FloatCvt                  0      0.00%     83.23% # Type of FU issued
system.cpu0.iq.FU_type_0::FloatMult                 0      0.00%     83.23% # Type of FU issued
system.cpu0.iq.FU_type_0::FloatMultAcc              0      0.00%     83.23% # Type of FU issued
system.cpu0.iq.FU_type_0::FloatDiv                  0      0.00%     83.23% # Type of FU issued
system.cpu0.iq.FU_type_0::FloatMisc                 0      0.00%     83.23% # Type of FU issued
system.cpu0.iq.FU_type_0::FloatSqrt                 0      0.00%     83.23% # Type of FU issued
system.cpu0.iq.FU_type_0::SimdAdd                   0      0.00%     83.23% # Type of FU issued
system.cpu0.iq.FU_type_0::SimdAddAcc                0      0.00%     83.23% # Type of FU issued
system.cpu0.iq.FU_type_0::SimdAlu                   0      0.00%     83.23% # Type of FU issued
system.cpu0.iq.FU_type_0::SimdCmp                   0      0.00%     83.23% # Type of FU issued
system.cpu0.iq.FU_type_0::SimdCvt                   0      0.00%     83.23% # Type of FU issued
system.cpu0.iq.FU_type_0::SimdMisc                  0      0.00%     83.23% # Type of FU issued
system.cpu0.iq.FU_type_0::SimdMult                  0      0.00%     83.23% # Type of FU issued
system.cpu0.iq.FU_type_0::SimdMultAcc               0      0.00%     83.23% # Type of FU issued
system.cpu0.iq.FU_type_0::SimdShift                 0      0.00%     83.23% # Type of FU issued
system.cpu0.iq.FU_type_0::SimdShiftAcc              0      0.00%     83.23% # Type of FU issued
system.cpu0.iq.FU_type_0::SimdSqrt                  0      0.00%     83.23% # Type of FU issued
system.cpu0.iq.FU_type_0::SimdFloatAdd              0      0.00%     83.23% # Type of FU issued
system.cpu0.iq.FU_type_0::SimdFloatAlu              0      0.00%     83.23% # Type of FU issued
system.cpu0.iq.FU_type_0::SimdFloatCmp              0      0.00%     83.23% # Type of FU issued
system.cpu0.iq.FU_type_0::SimdFloatCvt              0      0.00%     83.23% # Type of FU issued
system.cpu0.iq.FU_type_0::SimdFloatDiv              0      0.00%     83.23% # Type of FU issued
system.cpu0.iq.FU_type_0::SimdFloatMisc             0      0.00%     83.23% # Type of FU issued
system.cpu0.iq.FU_type_0::SimdFloatMult             0      0.00%     83.23% # Type of FU issued
system.cpu0.iq.FU_type_0::SimdFloatMultAcc            0      0.00%     83.23% # Type of FU issued
system.cpu0.iq.FU_type_0::SimdFloatSqrt             0      0.00%     83.23% # Type of FU issued
system.cpu0.iq.FU_type_0::MemRead             1106225     14.95%     98.18% # Type of FU issued
system.cpu0.iq.FU_type_0::MemWrite             129839      1.75%     99.94% # Type of FU issued
system.cpu0.iq.FU_type_0::FloatMemRead           4163      0.06%     99.99% # Type of FU issued
system.cpu0.iq.FU_type_0::FloatMemWrite           448      0.01%    100.00% # Type of FU issued
system.cpu0.iq.FU_type_0::IprAccess                 0      0.00%    100.00% # Type of FU issued
system.cpu0.iq.FU_type_0::InstPrefetch              0      0.00%    100.00% # Type of FU issued
system.cpu0.iq.FU_type_0::total               7400140                       # Type of FU issued
system.cpu0.iq.rate                          0.746297                       # Inst issue rate
system.cpu0.iq.fu_busy_cnt                      74588                       # FU busy when requested
system.cpu0.iq.fu_busy_rate                  0.010079                       # FU busy rate (busy events/executed inst)
system.cpu0.iq.int_inst_queue_reads          24698658                       # Number of integer instruction queue reads
system.cpu0.iq.int_inst_queue_writes          7689851                       # Number of integer instruction queue writes
system.cpu0.iq.int_inst_queue_wakeup_accesses      7252780                       # Number of integer instruction queue wakeup accesses
system.cpu0.iq.fp_inst_queue_reads              18524                       # Number of floating instruction queue reads
system.cpu0.iq.fp_inst_queue_writes             16772                       # Number of floating instruction queue writes
system.cpu0.iq.fp_inst_queue_wakeup_accesses         6266                       # Number of floating instruction queue wakeup accesses
system.cpu0.iq.int_alu_accesses               7461602                       # Number of integer alu accesses
system.cpu0.iq.fp_alu_accesses                   9211                       # Number of floating point alu accesses
system.cpu0.iew.lsq.thread0.forwLoads           16008                       # Number of loads that had data forwarded from stores
system.cpu0.iew.lsq.thread0.invAddrLoads            0                       # Number of loads ignored due to an invalid address
system.cpu0.iew.lsq.thread0.squashedLoads        43650                       # Number of loads squashed
system.cpu0.iew.lsq.thread0.ignoredResponses           28                       # Number of memory responses ignored because the instruction is squashed
system.cpu0.iew.lsq.thread0.memOrderViolation           78                       # Number of memory ordering violations
system.cpu0.iew.lsq.thread0.squashedStores         9936                       # Number of stores squashed
system.cpu0.iew.lsq.thread0.invAddrSwpfs            0                       # Number of software prefetches ignored due to an invalid address
system.cpu0.iew.lsq.thread0.blockedLoads            0                       # Number of blocked loads due to partial load-store forwarding
system.cpu0.iew.lsq.thread0.rescheduledLoads            5                       # Number of loads that were rescheduled
system.cpu0.iew.lsq.thread0.cacheBlocked       112773                       # Number of times an access to memory failed due to the cache being blocked
system.cpu0.iew.iewIdleCycles                       0                       # Number of cycles IEW is idle
system.cpu0.iew.iewSquashCycles                  8396                       # Number of cycles IEW is squashing
system.cpu0.iew.iewBlockCycles                 109537                       # Number of cycles IEW is blocking
system.cpu0.iew.iewUnblockCycles                 7321                       # Number of cycles IEW is unblocking
system.cpu0.iew.iewDispatchedInsts            7392773                       # Number of instructions dispatched to IQ
system.cpu0.iew.iewDispSquashedInsts             2180                       # Number of squashed instructions skipped by dispatch
system.cpu0.iew.iewDispLoadInsts              1010024                       # Number of dispatched load instructions
system.cpu0.iew.iewDispStoreInsts              134395                       # Number of dispatched store instructions
system.cpu0.iew.iewDispNonSpecInsts            105115                       # Number of dispatched non-speculative instructions
system.cpu0.iew.iewIQFullEvents                   508                       # Number of times the IQ has become full, causing a stall
system.cpu0.iew.iewLSQFullEvents                 6453                       # Number of times the LSQ has become full, causing a stall
system.cpu0.iew.memOrderViolationEvents            78                       # Number of memory order violations
system.cpu0.iew.predictedTakenIncorrect          1970                       # Number of branches that were predicted taken incorrectly
system.cpu0.iew.predictedNotTakenIncorrect         8517                       # Number of branches that were predicted not taken incorrectly
system.cpu0.iew.branchMispredicts               10487                       # Number of branch mispredicts detected at execute
system.cpu0.iew.iewExecutedInsts              7380419                       # Number of executed instructions
system.cpu0.iew.iewExecLoadInsts              1104758                       # Number of load instructions executed
system.cpu0.iew.iewExecSquashedInsts            19721                       # Number of squashed instructions skipped in execute
system.cpu0.iew.exec_swp                            0                       # number of swp insts executed
system.cpu0.iew.exec_nop                            0                       # number of nop insts executed
system.cpu0.iew.exec_refs                     1233778                       # number of memory reference insts executed
system.cpu0.iew.exec_branches                 1276270                       # Number of branches executed
system.cpu0.iew.exec_stores                    129020                       # Number of stores executed
system.cpu0.iew.exec_rate                    0.744308                       # Inst execution rate
system.cpu0.iew.wb_sent                       7263536                       # cumulative count of insts sent to commit
system.cpu0.iew.wb_count                      7259046                       # cumulative count of insts written-back
system.cpu0.iew.wb_producers                  4916421                       # num instructions producing a value
system.cpu0.iew.wb_consumers                  7434820                       # num instructions consuming a value
system.cpu0.iew.wb_rate                      0.732067                       # insts written-back per cycle
system.cpu0.iew.wb_fanout                    0.661270                       # average fanout of values written-back
system.cpu0.commit.commitSquashedInsts         313850                       # The number of squashed insts skipped by commit
system.cpu0.commit.commitNonSpecStalls         105066                       # The number of times commit has been forced to stall to communicate backwards
system.cpu0.commit.branchMispredicts             8340                       # The number of times a branch was mispredicted
system.cpu0.commit.committed_per_cycle::samples      9788738                       # Number of insts commited each cycle
system.cpu0.commit.committed_per_cycle::mean     0.723178                       # Number of insts commited each cycle
system.cpu0.commit.committed_per_cycle::stdev     1.888790                       # Number of insts commited each cycle
system.cpu0.commit.committed_per_cycle::underflows            0      0.00%      0.00% # Number of insts commited each cycle
system.cpu0.commit.committed_per_cycle::0      7800826     79.69%     79.69% # Number of insts commited each cycle
system.cpu0.commit.committed_per_cycle::1       692900      7.08%     86.77% # Number of insts commited each cycle
system.cpu0.commit.committed_per_cycle::2       170733      1.74%     88.51% # Number of insts commited each cycle
system.cpu0.commit.committed_per_cycle::3       470084      4.80%     93.32% # Number of insts commited each cycle
system.cpu0.commit.committed_per_cycle::4       117695      1.20%     94.52% # Number of insts commited each cycle
system.cpu0.commit.committed_per_cycle::5         5504      0.06%     94.58% # Number of insts commited each cycle
system.cpu0.commit.committed_per_cycle::6        54131      0.55%     95.13% # Number of insts commited each cycle
system.cpu0.commit.committed_per_cycle::7         3628      0.04%     95.17% # Number of insts commited each cycle
system.cpu0.commit.committed_per_cycle::8       473237      4.83%    100.00% # Number of insts commited each cycle
system.cpu0.commit.committed_per_cycle::overflows            0      0.00%    100.00% # Number of insts commited each cycle
system.cpu0.commit.committed_per_cycle::min_value            0                       # Number of insts commited each cycle
system.cpu0.commit.committed_per_cycle::max_value            8                       # Number of insts commited each cycle
system.cpu0.commit.committed_per_cycle::total      9788738                       # Number of insts commited each cycle
system.cpu0.commit.committedInsts             3555568                       # Number of instructions committed
system.cpu0.commit.committedOps               7078996                       # Number of ops (including micro ops) committed
system.cpu0.commit.swp_count                        0                       # Number of s/w prefetches committed
system.cpu0.commit.refs                       1090833                       # Number of memory references committed
system.cpu0.commit.loads                       966374                       # Number of loads committed
system.cpu0.commit.membars                          0                       # Number of memory barriers committed
system.cpu0.commit.branches                   1263590                       # Number of branches committed
system.cpu0.commit.fp_insts                      3676                       # Number of committed floating point instructions.
system.cpu0.commit.int_insts                  7075552                       # Number of committed integer instructions.
system.cpu0.commit.function_calls              105733                       # Number of function calls committed.
system.cpu0.commit.op_class_0::No_OpClass         1334      0.02%      0.02% # Class of committed instruction
system.cpu0.commit.op_class_0::IntAlu         5930745     83.78%     83.80% # Class of committed instruction
system.cpu0.commit.op_class_0::IntMult          52542      0.74%     84.54% # Class of committed instruction
system.cpu0.commit.op_class_0::IntDiv            1179      0.02%     84.56% # Class of committed instruction
system.cpu0.commit.op_class_0::FloatAdd          2363      0.03%     84.59% # Class of committed instruction
system.cpu0.commit.op_class_0::FloatCmp             0      0.00%     84.59% # Class of committed instruction
system.cpu0.commit.op_class_0::FloatCvt             0      0.00%     84.59% # Class of committed instruction
system.cpu0.commit.op_class_0::FloatMult            0      0.00%     84.59% # Class of committed instruction
system.cpu0.commit.op_class_0::FloatMultAcc            0      0.00%     84.59% # Class of committed instruction
system.cpu0.commit.op_class_0::FloatDiv             0      0.00%     84.59% # Class of committed instruction
system.cpu0.commit.op_class_0::FloatMisc            0      0.00%     84.59% # Class of committed instruction
system.cpu0.commit.op_class_0::FloatSqrt            0      0.00%     84.59% # Class of committed instruction
system.cpu0.commit.op_class_0::SimdAdd              0      0.00%     84.59% # Class of committed instruction
system.cpu0.commit.op_class_0::SimdAddAcc            0      0.00%     84.59% # Class of committed instruction
system.cpu0.commit.op_class_0::SimdAlu              0      0.00%     84.59% # Class of committed instruction
system.cpu0.commit.op_class_0::SimdCmp              0      0.00%     84.59% # Class of committed instruction
system.cpu0.commit.op_class_0::SimdCvt              0      0.00%     84.59% # Class of committed instruction
system.cpu0.commit.op_class_0::SimdMisc             0      0.00%     84.59% # Class of committed instruction
system.cpu0.commit.op_class_0::SimdMult             0      0.00%     84.59% # Class of committed instruction
system.cpu0.commit.op_class_0::SimdMultAcc            0      0.00%     84.59% # Class of committed instruction
system.cpu0.commit.op_class_0::SimdShift            0      0.00%     84.59% # Class of committed instruction
system.cpu0.commit.op_class_0::SimdShiftAcc            0      0.00%     84.59% # Class of committed instruction
system.cpu0.commit.op_class_0::SimdSqrt             0      0.00%     84.59% # Class of committed instruction
system.cpu0.commit.op_class_0::SimdFloatAdd            0      0.00%     84.59% # Class of committed instruction
system.cpu0.commit.op_class_0::SimdFloatAlu            0      0.00%     84.59% # Class of committed instruction
system.cpu0.commit.op_class_0::SimdFloatCmp            0      0.00%     84.59% # Class of committed instruction
system.cpu0.commit.op_class_0::SimdFloatCvt            0      0.00%     84.59% # Class of committed instruction
system.cpu0.commit.op_class_0::SimdFloatDiv            0      0.00%     84.59% # Class of committed instruction
system.cpu0.commit.op_class_0::SimdFloatMisc            0      0.00%     84.59% # Class of committed instruction
system.cpu0.commit.op_class_0::SimdFloatMult            0      0.00%     84.59% # Class of committed instruction
system.cpu0.commit.op_class_0::SimdFloatMultAcc            0      0.00%     84.59% # Class of committed instruction
system.cpu0.commit.op_class_0::SimdFloatSqrt            0      0.00%     84.59% # Class of committed instruction
system.cpu0.commit.op_class_0::MemRead         965518     13.64%     98.23% # Class of committed instruction
system.cpu0.commit.op_class_0::MemWrite        124059      1.75%     99.98% # Class of committed instruction
system.cpu0.commit.op_class_0::FloatMemRead          856      0.01%     99.99% # Class of committed instruction
system.cpu0.commit.op_class_0::FloatMemWrite          400      0.01%    100.00% # Class of committed instruction
system.cpu0.commit.op_class_0::IprAccess            0      0.00%    100.00% # Class of committed instruction
system.cpu0.commit.op_class_0::InstPrefetch            0      0.00%    100.00% # Class of committed instruction
system.cpu0.commit.op_class_0::total          7078996                       # Class of committed instruction
system.cpu0.commit.bw_lim_events               473237                       # number cycles where commit BW limit reached
system.cpu0.rob.rob_reads                    16708334                       # The number of ROB reads
system.cpu0.rob.rob_writes                   14833958                       # The number of ROB writes
system.cpu0.timesIdled                            785                       # Number of times that the entire CPU went into an idle state and unscheduled itself
system.cpu0.idleCycles                          79479                       # Total number of cycles that the CPU has spent unscheduled due to idling
system.cpu0.committedInsts                    3555568                       # Number of Instructions Simulated
system.cpu0.committedOps                      7078996                       # Number of Ops (including micro ops) Simulated
system.cpu0.cpi                              2.788814                       # CPI: Cycles Per Instruction
system.cpu0.cpi_total                        2.788814                       # CPI: Total CPI of All Threads
system.cpu0.ipc                              0.358575                       # IPC: Instructions Per Cycle
system.cpu0.ipc_total                        0.358575                       # IPC: Total IPC of All Threads
system.cpu0.int_regfile_reads                 8687607                       # number of integer regfile reads
system.cpu0.int_regfile_writes                6007433                       # number of integer regfile writes
system.cpu0.fp_regfile_reads                     9419                       # number of floating regfile reads
system.cpu0.fp_regfile_writes                    5445                       # number of floating regfile writes
system.cpu0.cc_regfile_reads                  4560324                       # number of cc regfile reads
system.cpu0.cc_regfile_writes                 1852078                       # number of cc regfile writes
system.cpu0.misc_regfile_reads                3946582                       # number of misc regfile reads
system.cpu1.branchPred.lookups                1234820                       # Number of BP lookups
system.cpu1.branchPred.condPredicted          1234820                       # Number of conditional branches predicted
system.cpu1.branchPred.condIncorrect             8567                       # Number of conditional branches incorrect
system.cpu1.branchPred.BTBLookups              883279                       # Number of BTB lookups
system.cpu1.branchPred.BTBHits                      0                       # Number of BTB hits
system.cpu1.branchPred.BTBCorrect                   0                       # Number of correct BTB predictions (this stat may not work properly.
system.cpu1.branchPred.BTBHitPct             0.000000                       # BTB Hit Percentage
system.cpu1.branchPred.usedRAS                  82828                       # Number of times the RAS was used to get a target.
system.cpu1.branchPred.RASInCorrect               457                       # Number of incorrect RAS predictions.
system.cpu1.branchPred.indirectLookups         883279                       # Number of indirect predictor lookups.
system.cpu1.branchPred.indirectHits            637984                       # Number of indirect target hits.
system.cpu1.branchPred.indirectMisses          245295                       # Number of indirect misses.
system.cpu1.branchPredindirectMispredicted         4511                       # Number of mispredicted indirect branches.
system.cpu1.clk_domain.clock                      500                       # Clock period in ticks
system.cpu1.dtb.walker.pwrStateResidencyTicks::UNDEFINED   4957908000                       # Cumulative time (in ticks) in various power states
system.cpu1.apic_clk_domain.clock                8000                       # Clock period in ticks
system.cpu1.interrupts.pwrStateResidencyTicks::UNDEFINED   4957908000                       # Cumulative time (in ticks) in various power states
system.cpu1.itb.walker.pwrStateResidencyTicks::UNDEFINED   4957908000                       # Cumulative time (in ticks) in various power states
system.cpu1.workload.num_syscalls               80552                       # Number of system calls
system.cpu1.pwrStateResidencyTicks::ON     4957908000                       # Cumulative time (in ticks) in various power states
system.cpu1.numCycles                         8461668                       # number of cpu cycles simulated
system.cpu1.numWorkItemsStarted                     0                       # number of work items this cpu started
system.cpu1.numWorkItemsCompleted                   0                       # number of work items this cpu completed
system.cpu1.fetch.icacheStallCycles            581756                       # Number of cycles fetch is stalled on an Icache miss
system.cpu1.fetch.Insts                       3665406                       # Number of instructions fetch has processed
system.cpu1.fetch.Branches                    1234820                       # Number of branches that fetch encountered
system.cpu1.fetch.predictedBranches            720812                       # Number of branches that fetch has predicted taken
system.cpu1.fetch.Cycles                      7773051                       # Number of cycles fetch has run and was not squashing or blocked
system.cpu1.fetch.SquashCycles                  17301                       # Number of cycles fetch has spent squashing
system.cpu1.fetch.MiscStallCycles               10716                       # Number of cycles fetch has spent waiting on interrupts, or bad addresses, or out of MSHRs
system.cpu1.fetch.NoActiveThreadStallCycles           10                       # Number of stall cycles due to no active thread to fetch from
system.cpu1.fetch.PendingTrapStallCycles          592                       # Number of stall cycles due to pending traps
system.cpu1.fetch.PendingQuiesceStallCycles           14                       # Number of stall cycles due to pending quiesce instructions
system.cpu1.fetch.IcacheWaitRetryStallCycles         6774                       # Number of stall cycles due to full MSHR
system.cpu1.fetch.CacheLines                   552683                       # Number of cache lines fetched
system.cpu1.fetch.IcacheSquashes                 2566                       # Number of outstanding Icache misses that were squashed
system.cpu1.fetch.rateDist::samples           8381563                       # Number of instructions fetched each cycle (Total)
system.cpu1.fetch.rateDist::mean             0.869587                       # Number of instructions fetched each cycle (Total)
system.cpu1.fetch.rateDist::stdev            2.243283                       # Number of instructions fetched each cycle (Total)
system.cpu1.fetch.rateDist::underflows              0      0.00%      0.00% # Number of instructions fetched each cycle (Total)
system.cpu1.fetch.rateDist::0                 7138077     85.16%     85.16% # Number of instructions fetched each cycle (Total)
system.cpu1.fetch.rateDist::1                    8216      0.10%     85.26% # Number of instructions fetched each cycle (Total)
system.cpu1.fetch.rateDist::2                   44037      0.53%     85.79% # Number of instructions fetched each cycle (Total)
system.cpu1.fetch.rateDist::3                  179746      2.14%     87.93% # Number of instructions fetched each cycle (Total)
system.cpu1.fetch.rateDist::4                  283734      3.39%     91.32% # Number of instructions fetched each cycle (Total)
system.cpu1.fetch.rateDist::5                    7585      0.09%     91.41% # Number of instructions fetched each cycle (Total)
system.cpu1.fetch.rateDist::6                   56468      0.67%     92.08% # Number of instructions fetched each cycle (Total)
system.cpu1.fetch.rateDist::7                  168295      2.01%     94.09% # Number of instructions fetched each cycle (Total)
system.cpu1.fetch.rateDist::8                  495405      5.91%    100.00% # Number of instructions fetched each cycle (Total)
system.cpu1.fetch.rateDist::overflows               0      0.00%    100.00% # Number of instructions fetched each cycle (Total)
system.cpu1.fetch.rateDist::min_value               0                       # Number of instructions fetched each cycle (Total)
system.cpu1.fetch.rateDist::max_value               8                       # Number of instructions fetched each cycle (Total)
system.cpu1.fetch.rateDist::total             8381563                       # Number of instructions fetched each cycle (Total)
system.cpu1.fetch.branchRate                 0.145931                       # Number of branch fetches per cycle
system.cpu1.fetch.rate                       0.433178                       # Number of inst fetches per cycle
system.cpu1.decode.IdleCycles                  296492                       # Number of cycles decode is idle
system.cpu1.decode.BlockedCycles              7136744                       # Number of cycles decode is blocked
system.cpu1.decode.RunCycles                   408206                       # Number of cycles decode is running
system.cpu1.decode.UnblockCycles               531461                       # Number of cycles decode is unblocking
system.cpu1.decode.SquashCycles                  8650                       # Number of cycles decode is squashing
system.cpu1.decode.DecodedInsts               7208377                       # Number of instructions handled by decode
system.cpu1.rename.SquashCycles                  8650                       # Number of cycles rename is squashing
system.cpu1.rename.IdleCycles                  447164                       # Number of cycles rename is idle
system.cpu1.rename.BlockCycles                 886620                       # Number of cycles rename is blocking
system.cpu1.rename.serializeStallCycles       5450210                       # count of cycles rename stalled for serializing inst
system.cpu1.rename.RunCycles                   613508                       # Number of cycles rename is running
system.cpu1.rename.UnblockCycles               975401                       # Number of cycles rename is unblocking
system.cpu1.rename.RenamedInsts               7166394                       # Number of instructions processed by rename
system.cpu1.rename.ROBFullEvents               443362                       # Number of times rename has blocked due to ROB full
system.cpu1.rename.IQFullEvents                 13862                       # Number of times rename has blocked due to IQ full
system.cpu1.rename.LQFullEvents                177970                       # Number of times rename has blocked due to LQ full
system.cpu1.rename.SQFullEvents                 99513                       # Number of times rename has blocked due to SQ full
system.cpu1.rename.RenamedOperands            7768580                       # Number of destination operands rename has renamed
system.cpu1.rename.RenameLookups             16479374                       # Number of register rename lookups that rename has made
system.cpu1.rename.int_rename_lookups         8342516                       # Number of integer rename lookups
system.cpu1.rename.fp_rename_lookups            18045                       # Number of floating rename lookups
system.cpu1.rename.CommittedMaps              7263171                       # Number of HB maps that are committed
system.cpu1.rename.UndoneMaps                  505409                       # Number of HB maps that are undone due to squashing
system.cpu1.rename.serializingInsts             80590                       # count of serializing insts renamed
system.cpu1.rename.tempSerializingInsts         80594                       # count of temporary serializing insts renamed
system.cpu1.rename.skidInsts                  3295901                       # count of insts added to the skid buffer
system.cpu1.memDep0.insertedLoads             1011779                       # Number of loads inserted to the mem dependence unit.
system.cpu1.memDep0.insertedStores             121978                       # Number of stores inserted to the mem dependence unit.
system.cpu1.memDep0.conflictingLoads            16516                       # Number of conflicting loads.
system.cpu1.memDep0.conflictingStores            1776                       # Number of conflicting stores.
system.cpu1.iq.iqInstsAdded                   7010912                       # Number of instructions added to the IQ (excludes non-spec)
system.cpu1.iq.iqNonSpecInstsAdded              80633                       # Number of non-speculative instructions added to the IQ
system.cpu1.iq.iqInstsIssued                  7092541                       # Number of instructions issued
system.cpu1.iq.iqSquashedInstsIssued             6382                       # Number of squashed instructions issued
system.cpu1.iq.iqSquashedInstsExamined         333695                       # Number of squashed instructions iterated over during squash; mainly for profiling
system.cpu1.iq.iqSquashedOperandsExamined       502935                       # Number of squashed operands that are examined and possibly removed from graph
system.cpu1.iq.iqSquashedNonSpecRemoved            81                       # Number of squashed non-spec instructions that were removed
system.cpu1.iq.issued_per_cycle::samples      8381563                       # Number of insts issued each cycle
system.cpu1.iq.issued_per_cycle::mean        0.846207                       # Number of insts issued each cycle
system.cpu1.iq.issued_per_cycle::stdev       1.658746                       # Number of insts issued each cycle
[...]
system.ruby.L1Cache_Controller.Load::total      2647866                      
system.ruby.L1Cache_Controller.Ifetch    |      686346     41.77%     41.77% |      552516     33.63%     75.40% |      356728     21.71%     97.11% |       47503      2.89%    100.00% |           0      0.00%    100.00%
system.ruby.L1Cache_Controller.Ifetch::total      1643093                      
system.ruby.L1Cache_Controller.Store     |      124938     25.67%     25.67% |      112729     23.17%     48.84% |      101558     20.87%     69.71% |       77530     15.93%     85.64% |       69859     14.36%    100.00%
system.ruby.L1Cache_Controller.Store::total       486614                      
system.ruby.L1Cache_Controller.L1_Replacement |        2757     13.09%     13.09% |        3194     15.16%     28.25% |        3936     18.68%     46.93% |        4579     21.73%     68.66% |        6602     31.34%    100.00%
system.ruby.L1Cache_Controller.L1_Replacement::total        21068                      
system.ruby.L1Cache_Controller.Data_Shared |         427     13.26%     13.26% |         472     14.66%     27.93% |         437     13.58%     41.50% |         449     13.95%     55.45% |        1434     44.55%    100.00%
system.ruby.L1Cache_Controller.Data_Shared::total         3219                      
system.ruby.L1Cache_Controller.Data_All_Tokens |        3900     15.50%     15.50% |        4297     17.07%     32.57% |        5074     20.16%     52.73% |        5705     22.67%     75.39% |        6193     24.61%    100.00%
system.ruby.L1Cache_Controller.Data_All_Tokens::total        25169                      
system.ruby.L1Cache_Controller.Transient_Local_GETX |        9147     22.91%     22.91% |        8757     21.94%     44.85% |        7961     19.94%     64.79% |        7331     18.36%     83.16% |        6724     16.84%    100.00%
system.ruby.L1Cache_Controller.Transient_Local_GETX::total        39920                      
system.ruby.L1Cache_Controller.Transient_Local_GETS |       14914     20.25%     20.25% |       14862     20.18%     40.44% |       14916     20.26%     60.70% |       14903     20.24%     80.94% |       14037     19.06%    100.00%
system.ruby.L1Cache_Controller.Transient_Local_GETS::total        73632                      
system.ruby.L1Cache_Controller.Persistent_GETX |         251     18.84%     18.84% |         241     18.09%     36.94% |         243     18.24%     55.18% |         264     19.82%     75.00% |         333     25.00%    100.00%
system.ruby.L1Cache_Controller.Persistent_GETX::total         1332                      
system.ruby.L1Cache_Controller.Persistent_GETS |         591     18.82%     18.82% |         560     17.83%     36.66% |         601     19.14%     55.80% |         603     19.20%     75.00% |         785     25.00%    100.00%
system.ruby.L1Cache_Controller.Persistent_GETS::total         3140                      
system.ruby.L1Cache_Controller.Own_Lock_or_Unlock |        1394     20.78%     20.78% |        1435     21.39%     42.17% |        1392     20.75%     62.92% |        1369     20.41%     83.33% |        1118     16.67%    100.00%
system.ruby.L1Cache_Controller.Own_Lock_or_Unlock::total         6708                      
system.ruby.L1Cache_Controller.Request_Timeout |        1766     26.21%     26.21% |        1593     23.64%     49.84% |        1821     27.02%     76.87% |        1559     23.13%    100.00% |           0      0.00%    100.00%
system.ruby.L1Cache_Controller.Request_Timeout::total         6739                      
system.ruby.L1Cache_Controller.Use_TimeoutNoStarvers |        3899     15.49%     15.49% |        4297     17.07%     32.57% |        5074     20.16%     52.73% |        5705     22.67%     75.39% |        6193     24.61%    100.00%
system.ruby.L1Cache_Controller.Use_TimeoutNoStarvers::total        25168                      
system.ruby.L1Cache_Controller.NP.Load   |        2270     16.77%     16.77% |        2322     17.15%     33.91% |        2282     16.85%     50.77% |        2295     16.95%     67.72% |        4371     32.28%    100.00%
system.ruby.L1Cache_Controller.NP.Load::total        13540                      
system.ruby.L1Cache_Controller.NP.Ifetch |        1223     25.13%     25.13% |        1224     25.15%     50.28% |        1210     24.86%     75.14% |        1210     24.86%    100.00% |           0      0.00%    100.00%
system.ruby.L1Cache_Controller.NP.Ifetch::total         4867                      
system.ruby.L1Cache_Controller.NP.Store  |         793      8.09%      8.09% |        1175     11.99%     20.08% |        1976     20.17%     40.25% |        2600     26.53%     66.78% |        3255     33.22%    100.00%
system.ruby.L1Cache_Controller.NP.Store::total         9799                      
system.ruby.L1Cache_Controller.NP.Transient_Local_GETX |        9147     24.01%     24.01% |        8757     22.99%     47.00% |        7159     18.79%     65.79% |        6311     16.57%     82.36% |        6722     17.64%    100.00%
system.ruby.L1Cache_Controller.NP.Transient_Local_GETX::total        38096                      
system.ruby.L1Cache_Controller.NP.Transient_Local_GETS |       14657     20.73%     20.73% |       14223     20.12%     40.85% |       13895     19.66%     60.51% |       13883     19.64%     80.15% |       14036     19.85%    100.00%
system.ruby.L1Cache_Controller.NP.Transient_Local_GETS::total        70694                      
system.ruby.L1Cache_Controller.NP.Own_Lock_or_Unlock |         842     18.83%     18.83% |         801     17.91%     36.74% |         844     18.87%     55.61% |         867     19.39%     75.00% |        1118     25.00%    100.00%
system.ruby.L1Cache_Controller.NP.Own_Lock_or_Unlock::total         4472                      
system.ruby.L1Cache_Controller.I.Load    |           1    100.00%    100.00% |           0      0.00%    100.00% |           0      0.00%    100.00% |           0      0.00%    100.00% |           0      0.00%    100.00%
system.ruby.L1Cache_Controller.I.Load::total            1                      
system.ruby.L1Cache_Controller.I.Store   |           1     25.00%     25.00% |           1     25.00%     50.00% |           1     25.00%     75.00% |           1     25.00%    100.00% |           0      0.00%    100.00%
system.ruby.L1Cache_Controller.I.Store::total            4                      
system.ruby.L1Cache_Controller.I.L1_Replacement |           8      2.68%      2.68% |          29      9.73%     12.42% |         134     44.97%     57.38% |         126     42.28%     99.66% |           1      0.34%    100.00%
system.ruby.L1Cache_Controller.I.L1_Replacement::total          298                      
system.ruby.L1Cache_Controller.I.Transient_Local_GETX |           0      0.00%      0.00% |           0      0.00%      0.00% |         802     44.02%     44.02% |        1020     55.98%    100.00% |           0      0.00%    100.00%
system.ruby.L1Cache_Controller.I.Transient_Local_GETX::total         1822                      
system.ruby.L1Cache_Controller.S.Load    |      570424     28.10%     28.10% |      524711     25.85%     53.95% |      494379     24.35%     78.30% |      418918     20.64%     98.94% |       21496      1.06%    100.00%
system.ruby.L1Cache_Controller.S.Load::total      2029928                      
system.ruby.L1Cache_Controller.S.Ifetch  |      421230     43.55%     43.55% |      323652     33.46%     77.01% |      221301     22.88%     99.89% |        1092      0.11%    100.00% |           0      0.00%    100.00%
system.ruby.L1Cache_Controller.S.Ifetch::total       967275                      
system.ruby.L1Cache_Controller.S.Store   |          39     22.03%     22.03% |          47     26.55%     48.59% |          42     23.73%     72.32% |          48     27.12%     99.44% |           1      0.56%    100.00%
system.ruby.L1Cache_Controller.S.Store::total          177                      
system.ruby.L1Cache_Controller.S.L1_Replacement |         204      8.36%      8.36% |         276     11.31%     19.67% |         259     10.61%     30.29% |         268     10.98%     41.27% |        1433     58.73%    100.00%
system.ruby.L1Cache_Controller.S.L1_Replacement::total         2440                      
system.ruby.L1Cache_Controller.M.Load    |       15590     15.02%     15.02% |       15731     15.16%     30.18% |       15744     15.17%     45.34% |       15685     15.11%     60.46% |       41046     39.54%    100.00%
system.ruby.L1Cache_Controller.M.Load::total       103796                      
system.ruby.L1Cache_Controller.M.Ifetch  |      263450     39.37%     39.37% |      227192     33.95%     73.32% |      133773     19.99%     93.31% |       44768      6.69%    100.00% |           0      0.00%    100.00%
system.ruby.L1Cache_Controller.M.Ifetch::total       669183                      
system.ruby.L1Cache_Controller.M.Store   |          47      3.60%      3.60% |          48      3.68%      7.28% |          47      3.60%     10.88% |          48      3.68%     14.56% |        1115     85.44%    100.00%
system.ruby.L1Cache_Controller.M.Store::total         1305                      
system.ruby.L1Cache_Controller.M.L1_Replacement |        2002     17.86%     17.86% |        2321     20.71%     38.57% |        2526     22.54%     61.11% |        2537     22.64%     83.74% |        1822     16.26%    100.00%
system.ruby.L1Cache_Controller.M.L1_Replacement::total        11208                      
system.ruby.L1Cache_Controller.M.Own_Lock_or_Unlock |         189     24.42%     24.42% |         224     28.94%     53.36% |         181     23.39%     76.74% |         180     23.26%    100.00% |           0      0.00%    100.00%
system.ruby.L1Cache_Controller.M.Own_Lock_or_Unlock::total          774                      
system.ruby.L1Cache_Controller.MM.Load   |      130358     28.79%     28.79% |      124470     27.49%     56.28% |      112884     24.93%     81.21% |       85090     18.79%    100.00% |           0      0.00%    100.00%
system.ruby.L1Cache_Controller.MM.Load::total       452802                      
system.ruby.L1Cache_Controller.MM.Store  |      118935     28.74%     28.74% |      101788     24.59%     53.33% |       81309     19.64%     72.97% |       49632     11.99%     84.96% |       62232     15.04%    100.00%
system.ruby.L1Cache_Controller.MM.Store::total       413896                      
system.ruby.L1Cache_Controller.MM.L1_Replacement |         543      7.62%      7.62% |         568      7.98%     15.60% |        1017     14.28%     29.88% |        1648     23.14%     53.02% |        3346     46.98%    100.00%
system.ruby.L1Cache_Controller.MM.L1_Replacement::total         7122                      
system.ruby.L1Cache_Controller.MM.Transient_Local_GETX |           0      0.00%      0.00% |           0      0.00%      0.00% |           0      0.00%      0.00% |           0      0.00%      0.00% |           2    100.00%    100.00%
system.ruby.L1Cache_Controller.MM.Transient_Local_GETX::total            2                      
system.ruby.L1Cache_Controller.MM.Transient_Local_GETS |         257      8.75%      8.75% |         639     21.75%     30.50% |        1021     34.75%     65.25% |        1020     34.72%     99.97% |           1      0.03%    100.00%
system.ruby.L1Cache_Controller.MM.Transient_Local_GETS::total         2938                      
system.ruby.L1Cache_Controller.MM.Own_Lock_or_Unlock |          87     25.29%     25.29% |          93     27.03%     52.33% |          93     27.03%     79.36% |          71     20.64%    100.00% |           0      0.00%    100.00%
system.ruby.L1Cache_Controller.MM.Own_Lock_or_Unlock::total          344                      
system.ruby.L1Cache_Controller.M_W.Load  |       11135     23.39%     23.39% |       11165     23.45%     46.84% |       11276     23.69%     70.53% |       11085     23.28%     93.81% |        2946      6.19%    100.00%
system.ruby.L1Cache_Controller.M_W.Load::total        47607                      
system.ruby.L1Cache_Controller.M_W.Ifetch |         443     25.06%     25.06% |         448     25.34%     50.40% |         444     25.11%     75.51% |         433     24.49%    100.00% |           0      0.00%    100.00%
system.ruby.L1Cache_Controller.M_W.Ifetch::total         1768                      
system.ruby.L1Cache_Controller.M_W.Store |          15     25.42%     25.42% |          14     23.73%     49.15% |          16     27.12%     76.27% |          14     23.73%    100.00% |           0      0.00%    100.00%
system.ruby.L1Cache_Controller.M_W.Store::total           59                      
system.ruby.L1Cache_Controller.M_W.Own_Lock_or_Unlock |          22     20.95%     20.95% |          25     23.81%     44.76% |          32     30.48%     75.24% |          26     24.76%    100.00% |           0      0.00%    100.00%
system.ruby.L1Cache_Controller.M_W.Own_Lock_or_Unlock::total          105                      
system.ruby.L1Cache_Controller.M_W.Use_TimeoutNoStarvers |        3051     20.17%     20.17% |        3060     20.23%     40.39% |        3039     20.09%     60.48% |        3042     20.11%     80.59% |        2937     19.41%    100.00%
system.ruby.L1Cache_Controller.M_W.Use_TimeoutNoStarvers::total        15129                      
system.ruby.L1Cache_Controller.MM_W.Load |          44     22.92%     22.92% |          45     23.44%     46.35% |          54     28.12%     74.48% |          49     25.52%    100.00% |           0      0.00%    100.00%
system.ruby.L1Cache_Controller.MM_W.Load::total          192                      
system.ruby.L1Cache_Controller.MM_W.Store |        5108      8.32%      8.32% |        9656     15.73%     24.06% |       18167     29.60%     53.66% |       25187     41.04%     94.69% |        3256      5.31%    100.00%
system.ruby.L1Cache_Controller.MM_W.Store::total        61374                      
system.ruby.L1Cache_Controller.MM_W.Own_Lock_or_Unlock |          10     28.57%     28.57% |           9     25.71%     54.29% |          10     28.57%     82.86% |           6     17.14%    100.00% |           0      0.00%    100.00%
system.ruby.L1Cache_Controller.MM_W.Own_Lock_or_Unlock::total           35                      
system.ruby.L1Cache_Controller.MM_W.Use_TimeoutNoStarvers |         848      8.45%      8.45% |        1237     12.32%     20.77% |        2035     20.27%     41.04% |        2663     26.53%     67.57% |        3256     32.43%    100.00%
system.ruby.L1Cache_Controller.MM_W.Use_TimeoutNoStarvers::total        10039                      
system.ruby.L1Cache_Controller.IM.Data_All_Tokens |         794      8.10%      8.10% |        1176     12.00%     20.10% |        1977     20.17%     40.26% |        2601     26.53%     66.80% |        3255     33.20%    100.00%
system.ruby.L1Cache_Controller.IM.Data_All_Tokens::total         9803                      
system.ruby.L1Cache_Controller.IM.Own_Lock_or_Unlock |          73     24.33%     24.33% |          83     27.67%     52.00% |          81     27.00%     79.00% |          63     21.00%    100.00% |           0      0.00%    100.00%
system.ruby.L1Cache_Controller.IM.Own_Lock_or_Unlock::total          300                      
system.ruby.L1Cache_Controller.IM.Request_Timeout |         265     26.90%     26.90% |         167     16.95%     43.86% |         323     32.79%     76.65% |         230     23.35%    100.00% |           0      0.00%    100.00%
system.ruby.L1Cache_Controller.IM.Request_Timeout::total          985                      
system.ruby.L1Cache_Controller.SM.Data_All_Tokens |          39     22.03%     22.03% |          47     26.55%     48.59% |          42     23.73%     72.32% |          48     27.12%     99.44% |           1      0.56%    100.00%
system.ruby.L1Cache_Controller.SM.Data_All_Tokens::total          177                      
system.ruby.L1Cache_Controller.IS.Data_Shared |         427     13.26%     13.26% |         472     14.66%     27.93% |         437     13.58%     41.50% |         449     13.95%     55.45% |        1434     44.55%    100.00%
system.ruby.L1Cache_Controller.IS.Data_Shared::total         3219                      
system.ruby.L1Cache_Controller.IS.Data_All_Tokens |        3067     20.19%     20.19% |        3074     20.24%     40.43% |        3055     20.11%     60.54% |        3056     20.12%     80.66% |        2937     19.34%    100.00%
system.ruby.L1Cache_Controller.IS.Data_All_Tokens::total        15189                      
system.ruby.L1Cache_Controller.IS.Own_Lock_or_Unlock |         171     25.22%     25.22% |         200     29.50%     54.72% |         151     22.27%     76.99% |         156     23.01%    100.00% |           0      0.00%    100.00%
system.ruby.L1Cache_Controller.IS.Own_Lock_or_Unlock::total          678                      
system.ruby.L1Cache_Controller.IS.Request_Timeout |        1501     26.09%     26.09% |        1426     24.78%     50.87% |        1498     26.03%     76.90% |        1329     23.10%    100.00% |           0      0.00%    100.00%
system.ruby.L1Cache_Controller.IS.Request_Timeout::total         5754                      
system.ruby.L1Cache_Controller.I_L.Persistent_GETX |         251     18.84%     18.84% |         241     18.09%     36.94% |         243     18.24%     55.18% |         264     19.82%     75.00% |         333     25.00%    100.00%
system.ruby.L1Cache_Controller.I_L.Persistent_GETX::total         1332                      
system.ruby.L1Cache_Controller.I_L.Persistent_GETS |         591     18.82%     18.82% |         560     17.83%     36.66% |         601     19.14%     55.80% |         603     19.20%     75.00% |         785     25.00%    100.00%
system.ruby.L1Cache_Controller.I_L.Persistent_GETS::total         3140                      
system.ruby.L2Cache_Controller.L1_GETS          18408      0.00%      0.00%
system.ruby.L2Cache_Controller.L1_GETX           9980      0.00%      0.00%
system.ruby.L2Cache_Controller.L1_INV            2940      0.00%      0.00%
system.ruby.L2Cache_Controller.L2_Replacement            6      0.00%      0.00%
system.ruby.L2Cache_Controller.Writeback_All_Tokens        20770      0.00%      0.00%
system.ruby.L2Cache_Controller.Persistent_GETX          333      0.00%      0.00%
system.ruby.L2Cache_Controller.Persistent_GETS          785      0.00%      0.00%
system.ruby.L2Cache_Controller.Own_Lock_or_Unlock         1118      0.00%      0.00%
system.ruby.L2Cache_Controller.NP.L1_GETS        15182      0.00%      0.00%
system.ruby.L2Cache_Controller.NP.L1_GETX         6356      0.00%      0.00%
system.ruby.L2Cache_Controller.NP.L1_INV         2931      0.00%      0.00%
system.ruby.L2Cache_Controller.NP.Writeback_All_Tokens        15049      0.00%      0.00%
system.ruby.L2Cache_Controller.NP.Own_Lock_or_Unlock         1118      0.00%      0.00%
system.ruby.L2Cache_Controller.I.L1_GETS            7      0.00%      0.00%
system.ruby.L2Cache_Controller.I.L1_GETX            2      0.00%      0.00%
system.ruby.L2Cache_Controller.I.L1_INV             9      0.00%      0.00%
system.ruby.L2Cache_Controller.I.Writeback_All_Tokens         3281      0.00%      0.00%
system.ruby.L2Cache_Controller.O.L1_GETX          177      0.00%      0.00%
system.ruby.L2Cache_Controller.O.Writeback_All_Tokens         2440      0.00%      0.00%
system.ruby.L2Cache_Controller.M.L1_GETS         3219      0.00%      0.00%
system.ruby.L2Cache_Controller.M.L1_GETX         3445      0.00%      0.00%
system.ruby.L2Cache_Controller.M.L2_Replacement            6      0.00%      0.00%
system.ruby.L2Cache_Controller.I_L.Persistent_GETX          333      0.00%      0.00%
system.ruby.L2Cache_Controller.I_L.Persistent_GETS          785      0.00%      0.00%

---------- End Simulation Statistics   ----------
