
---------- Begin Simulation Statistics ----------
sim_seconds                                  0.035931                       # Number of seconds simulated
sim_ticks                                 35931434000                       # Number of ticks simulated
final_tick                                35931434000                       # Number of ticks from beginning of simulation (restored from checkpoints and never reset)
sim_freq                                 1000000000000                       # Frequency of simulated ticks
host_inst_rate                                  52303                       # Simulator instruction rate (inst/s)
host_op_rate                                   104510                       # Simulator op (including micro ops) rate (op/s)
host_tick_rate                               21133062                       # Simulator tick rate (ticks/s)
host_mem_usage                                 847628                       # Number of bytes of host memory used
host_seconds                                  1700.25                       # Real time elapsed on the host
sim_insts                                    88927367                       # Number of instructions simulated
sim_ops                                     177692840                       # Number of ops (including micro ops) simulated
system.voltage_domain.voltage                       1                       # Voltage in Volts
system.clk_domain.clock                          1000                       # Clock period in ticks
system.mem_ctrls.pwrStateResidencyTicks::UNDEFINED  35931434000                       # Cumulative time (in ticks) in various power states
system.mem_ctrls.bytes_read::ruby.dir_cntrl0       909888                       # Number of bytes read from this memory
system.mem_ctrls.bytes_read::total             909888                       # Number of bytes read from this memory
system.mem_ctrls.num_reads::ruby.dir_cntrl0        14217                       # Number of read requests responded to by this memory
system.mem_ctrls.num_reads::total               14217                       # Number of read requests responded to by this memory
system.mem_ctrls.bw_read::ruby.dir_cntrl0     25322897                       # Total read bandwidth from this memory (bytes/s)
system.mem_ctrls.bw_read::total              25322897                       # Total read bandwidth from this memory (bytes/s)
system.mem_ctrls.bw_total::ruby.dir_cntrl0     25322897                       # Total bandwidth to/from this memory (bytes/s)
system.mem_ctrls.bw_total::total             25322897                       # Total bandwidth to/from this memory (bytes/s)
system.mem_ctrls.readReqs                       14217                       # Number of read requests accepted
system.mem_ctrls.avgNetLat                       0.00                       # Average network latency to DRAM controller
system.mem_ctrls.writeReqs                          0                       # Number of write requests accepted
system.mem_ctrls.readBursts                     14217                       # Number of DRAM read bursts, including those serviced by the write queue
system.mem_ctrls.writeBursts                        0                       # Number of DRAM write bursts, including those merged in the write queue
system.mem_ctrls.bytesReadDRAM                 909888                       # Total number of bytes read from DRAM
system.mem_ctrls.bytesReadWrQ                       0                       # Total number of bytes read from write queue
system.mem_ctrls.bytesWritten                       0                       # Total number of bytes written to DRAM
system.mem_ctrls.bytesReadSys                  909888                       # Total read bytes from the system interface side
system.mem_ctrls.bytesWrittenSys                    0                       # Total written bytes from the system interface side
system.mem_ctrls.servicedByWrQ                      0                       # Number of DRAM read bursts serviced by the write queue
system.mem_ctrls.mergedWrBursts                     0                       # Number of DRAM write bursts merged with an existing one
system.mem_ctrls.neitherReadNorWriteReqs            0                       # Number of requests that are neither read nor write
system.mem_ctrls.perBankRdBursts::0              1012                       # Per bank write bursts
system.mem_ctrls.perBankRdBursts::1               800                       # Per bank write bursts
system.mem_ctrls.perBankRdBursts::2               826                       # Per bank write bursts
system.mem_ctrls.perBankRdBursts::3               791                       # Per bank write bursts
system.mem_ctrls.perBankRdBursts::4               752                       # Per bank write bursts
system.mem_ctrls.perBankRdBursts::5               931                       # Per bank write bursts
system.mem_ctrls.perBankRdBursts::6               932                       # Per bank write bursts
system.mem_ctrls.perBankRdBursts::7               822                       # Per bank write bursts
system.mem_ctrls.perBankRdBursts::8               869                       # Per bank write bursts
system.mem_ctrls.perBankRdBursts::9               906                       # Per bank write bursts
system.mem_ctrls.perBankRdBursts::10              952                       # Per bank write bursts
system.mem_ctrls.perBankRdBursts::11              863                       # Per bank write bursts
system.mem_ctrls.perBankRdBursts::12              747                       # Per bank write bursts
system.mem_ctrls.perBankRdBursts::13             1024                       # Per bank write bursts
system.mem_ctrls.perBankRdBursts::14             1043                       # Per bank write bursts
system.mem_ctrls.perBankRdBursts::15              947                       # Per bank write bursts
system.mem_ctrls.perBankWrBursts::0                 0                       # Per bank write bursts
system.mem_ctrls.perBankWrBursts::1                 0                       # Per bank write bursts
system.mem_ctrls.perBankWrBursts::2                 0                       # Per bank write bursts
system.mem_ctrls.perBankWrBursts::3                 0                       # Per bank write bursts
system.mem_ctrls.perBankWrBursts::4                 0                       # Per bank write bursts
system.mem_ctrls.perBankWrBursts::5                 0                       # Per bank write bursts
system.mem_ctrls.perBankWrBursts::6                 0                       # Per bank write bursts
system.mem_ctrls.perBankWrBursts::7                 0                       # Per bank write bursts
system.mem_ctrls.perBankWrBursts::8                 0                       # Per bank write bursts
system.mem_ctrls.perBankWrBursts::9                 0                       # Per bank write bursts
system.mem_ctrls.perBankWrBursts::10                0                       # Per bank write bursts
system.mem_ctrls.perBankWrBursts::11                0                       # Per bank write bursts
system.mem_ctrls.perBankWrBursts::12                0                       # Per bank write bursts
system.mem_ctrls.perBankWrBursts::13                0                       # Per bank write bursts
system.mem_ctrls.perBankWrBursts::14                0                       # Per bank write bursts
system.mem_ctrls.perBankWrBursts::15                0                       # Per bank write bursts
system.mem_ctrls.numRdRetry                         0                       # Number of times read queue was full causing retry
system.mem_ctrls.numWrRetry                         0                       # Number of times write queue was full causing retry
system.mem_ctrls.totGap                   35931368500                       # Total gap between requests
system.mem_ctrls.readPktSize::0                     0                       # Read request sizes (log2)
system.mem_ctrls.readPktSize::1                     0                       # Read request sizes (log2)
system.mem_ctrls.readPktSize::2                     0                       # Read request sizes (log2)
system.mem_ctrls.readPktSize::3                     0                       # Read request sizes (log2)
system.mem_ctrls.readPktSize::4                     0                       # Read request sizes (log2)
system.mem_ctrls.readPktSize::5                     0                       # Read request sizes (log2)
system.mem_ctrls.readPktSize::6                 14217                       # Read request sizes (log2)
system.mem_ctrls.writePktSize::0                    0                       # Write request sizes (log2)
system.mem_ctrls.writePktSize::1                    0                       # Write request sizes (log2)
system.mem_ctrls.writePktSize::2                    0                       # Write request sizes (log2)
system.mem_ctrls.writePktSize::3                    0                       # Write request sizes (log2)
system.mem_ctrls.writePktSize::4                    0                       # Write request sizes (log2)
system.mem_ctrls.writePktSize::5                    0                       # Write request sizes (log2)
system.mem_ctrls.writePktSize::6                    0                       # Write request sizes (log2)
system.mem_ctrls.rdQLenPdf::0                    1956                       # What read queue length does an incoming req see
system.mem_ctrls.rdQLenPdf::1                    2730                       # What read queue length does an incoming req see
system.mem_ctrls.rdQLenPdf::2                    2408                       # What read queue length does an incoming req see
system.mem_ctrls.rdQLenPdf::3                    1788                       # What read queue length does an incoming req see
system.mem_ctrls.rdQLenPdf::4                    1294                       # What read queue length does an incoming req see
system.mem_ctrls.rdQLenPdf::5                     974                       # What read queue length does an incoming req see
system.mem_ctrls.rdQLenPdf::6                     825                       # What read queue length does an incoming req see
system.mem_ctrls.rdQLenPdf::7                     706                       # What read queue length does an incoming req see
system.mem_ctrls.rdQLenPdf::8                     557                       # What read queue length does an incoming req see
system.mem_ctrls.rdQLenPdf::9                     384                       # What read queue length does an incoming req see
system.mem_ctrls.rdQLenPdf::10                    266                       # What read queue length does an incoming req see
system.mem_ctrls.rdQLenPdf::11                    151                       # What read queue length does an incoming req see
system.mem_ctrls.rdQLenPdf::12                    107                       # What read queue length does an incoming req see
system.mem_ctrls.rdQLenPdf::13                     42                       # What read queue length does an incoming req see
system.mem_ctrls.rdQLenPdf::14                     17                       # What read queue length does an incoming req see
system.mem_ctrls.rdQLenPdf::15                      7                       # What read queue length does an incoming req see
system.mem_ctrls.rdQLenPdf::16                      2                       # What read queue length does an incoming req see
system.mem_ctrls.rdQLenPdf::17                      3                       # What read queue length does an incoming req see
system.mem_ctrls.rdQLenPdf::18                      0                       # What read queue length does an incoming req see
system.mem_ctrls.rdQLenPdf::19                      0                       # What read queue length does an incoming req see
system.mem_ctrls.rdQLenPdf::20                      0                       # What read queue length does an incoming req see
system.mem_ctrls.rdQLenPdf::21                      0                       # What read queue length does an incoming req see
system.mem_ctrls.rdQLenPdf::22                      0                       # What read queue length does an incoming req see
system.mem_ctrls.rdQLenPdf::23                      0                       # What read queue length does an incoming req see
system.mem_ctrls.rdQLenPdf::24                      0                       # What read queue length does an incoming req see
system.mem_ctrls.rdQLenPdf::25                      0                       # What read queue length does an incoming req see
system.mem_ctrls.rdQLenPdf::26                      0                       # What read queue length does an incoming req see
system.mem_ctrls.rdQLenPdf::27                      0                       # What read queue length does an incoming req see
system.mem_ctrls.rdQLenPdf::28                      0                       # What read queue length does an incoming req see
system.mem_ctrls.rdQLenPdf::29                      0                       # What read queue length does an incoming req see
system.mem_ctrls.rdQLenPdf::30                      0                       # What read queue length does an incoming req see
system.mem_ctrls.rdQLenPdf::31                      0                       # What read queue length does an incoming req see
system.mem_ctrls.wrQLenPdf::0                       0                       # What write queue length does an incoming req see
system.mem_ctrls.wrQLenPdf::1                       0                       # What write queue length does an incoming req see
system.mem_ctrls.wrQLenPdf::2                       0                       # What write queue length does an incoming req see
system.mem_ctrls.wrQLenPdf::3                       0                       # What write queue length does an incoming req see
system.mem_ctrls.wrQLenPdf::4                       0                       # What write queue length does an incoming req see
system.mem_ctrls.wrQLenPdf::5                       0                       # What write queue length does an incoming req see
system.mem_ctrls.wrQLenPdf::6                       0                       # What write queue length does an incoming req see
system.mem_ctrls.wrQLenPdf::7                       0                       # What write queue length does an incoming req see
system.mem_ctrls.wrQLenPdf::8                       0                       # What write queue length does an incoming req see
system.mem_ctrls.wrQLenPdf::9                       0                       # What write queue length does an incoming req see
system.mem_ctrls.wrQLenPdf::10                      0                       # What write queue length does an incoming req see
system.mem_ctrls.wrQLenPdf::11                      0                       # What write queue length does an incoming req see
system.mem_ctrls.wrQLenPdf::12                      0                       # What write queue length does an incoming req see
system.mem_ctrls.wrQLenPdf::13                      0                       # What write queue length does an incoming req see
system.mem_ctrls.wrQLenPdf::14                      0                       # What write queue length does an incoming req see
system.mem_ctrls.wrQLenPdf::15                      0                       # What write queue length does an incoming req see
system.mem_ctrls.wrQLenPdf::16                      0                       # What write queue length does an incoming req see
system.mem_ctrls.wrQLenPdf::17                      0                       # What write queue length does an incoming req see
system.mem_ctrls.wrQLenPdf::18                      0                       # What write queue length does an incoming req see
system.mem_ctrls.wrQLenPdf::19                      0                       # What write queue length does an incoming req see
system.mem_ctrls.wrQLenPdf::20                      0                       # What write queue length does an incoming req see
system.mem_ctrls.wrQLenPdf::21                      0                       # What write queue length does an incoming req see
system.mem_ctrls.wrQLenPdf::22                      0                       # What write queue length does an incoming req see
system.mem_ctrls.wrQLenPdf::23                      0                       # What write queue length does an incoming req see
system.mem_ctrls.wrQLenPdf::24                      0                       # What write queue length does an incoming req see
system.mem_ctrls.wrQLenPdf::25                      0                       # What write queue length does an incoming req see
system.mem_ctrls.wrQLenPdf::26                      0                       # What write queue length does an incoming req see
system.mem_ctrls.wrQLenPdf::27                      0                       # What write queue length does an incoming req see
system.mem_ctrls.wrQLenPdf::28                      0                       # What write queue length does an incoming req see
system.mem_ctrls.wrQLenPdf::29                      0                       # What write queue length does an incoming req see
system.mem_ctrls.wrQLenPdf::30                      0                       # What write queue length does an incoming req see
system.mem_ctrls.wrQLenPdf::31                      0                       # What write queue length does an incoming req see
system.mem_ctrls.wrQLenPdf::32                      0                       # What write queue length does an incoming req see
system.mem_ctrls.wrQLenPdf::33                      0                       # What write queue length does an incoming req see
system.mem_ctrls.wrQLenPdf::34                      0                       # What write queue length does an incoming req see
system.mem_ctrls.wrQLenPdf::35                      0                       # What write queue length does an incoming req see
system.mem_ctrls.wrQLenPdf::36                      0                       # What write queue length does an incoming req see
system.mem_ctrls.wrQLenPdf::37                      0                       # What write queue length does an incoming req see
system.mem_ctrls.wrQLenPdf::38                      0                       # What write queue length does an incoming req see
system.mem_ctrls.wrQLenPdf::39                      0                       # What write queue length does an incoming req see
system.mem_ctrls.wrQLenPdf::40                      0                       # What write queue length does an incoming req see
system.mem_ctrls.wrQLenPdf::41                      0                       # What write queue length does an incoming req see
system.mem_ctrls.wrQLenPdf::42                      0                       # What write queue length does an incoming req see
system.mem_ctrls.wrQLenPdf::43                      0                       # What write queue length does an incoming req see
system.mem_ctrls.wrQLenPdf::44                      0                       # What write queue length does an incoming req see
system.mem_ctrls.wrQLenPdf::45                      0                       # What write queue length does an incoming req see
system.mem_ctrls.wrQLenPdf::46                      0                       # What write queue length does an incoming req see
system.mem_ctrls.wrQLenPdf::47                      0                       # What write queue length does an incoming req see
system.mem_ctrls.wrQLenPdf::48                      0                       # What write queue length does an incoming req see
system.mem_ctrls.wrQLenPdf::49                      0                       # What write queue length does an incoming req see
system.mem_ctrls.wrQLenPdf::50                      0                       # What write queue length does an incoming req see
system.mem_ctrls.wrQLenPdf::51                      0                       # What write queue length does an incoming req see
system.mem_ctrls.wrQLenPdf::52                      0                       # What write queue length does an incoming req see
system.mem_ctrls.wrQLenPdf::53                      0                       # What write queue length does an incoming req see
system.mem_ctrls.wrQLenPdf::54                      0                       # What write queue length does an incoming req see
system.mem_ctrls.wrQLenPdf::55                      0                       # What write queue length does an incoming req see
system.mem_ctrls.wrQLenPdf::56                      0                       # What write queue length does an incoming req see
system.mem_ctrls.wrQLenPdf::57                      0                       # What write queue length does an incoming req see
system.mem_ctrls.wrQLenPdf::58                      0                       # What write queue length does an incoming req see
system.mem_ctrls.wrQLenPdf::59                      0                       # What write queue length does an incoming req see
system.mem_ctrls.wrQLenPdf::60                      0                       # What write queue length does an incoming req see
system.mem_ctrls.wrQLenPdf::61                      0                       # What write queue length does an incoming req see
system.mem_ctrls.wrQLenPdf::62                      0                       # What write queue length does an incoming req see
system.mem_ctrls.wrQLenPdf::63                      0                       # What write queue length does an incoming req see
system.mem_ctrls.bytesPerActivate::samples         5074                       # Bytes accessed per row activation
system.mem_ctrls.bytesPerActivate::mean    178.919984                       # Bytes accessed per row activation
system.mem_ctrls.bytesPerActivate::gmean   110.289641                       # Bytes accessed per row activation
system.mem_ctrls.bytesPerActivate::stdev   244.297990                       # Bytes accessed per row activation
system.mem_ctrls.bytesPerActivate::0-127         3124     61.57%     61.57% # Bytes accessed per row activation
system.mem_ctrls.bytesPerActivate::128-255         1054     20.77%     82.34% # Bytes accessed per row activation
system.mem_ctrls.bytesPerActivate::256-383          277      5.46%     87.80% # Bytes accessed per row activation
system.mem_ctrls.bytesPerActivate::384-511          153      3.02%     90.82% # Bytes accessed per row activation
system.mem_ctrls.bytesPerActivate::512-639           73      1.44%     92.25% # Bytes accessed per row activation
system.mem_ctrls.bytesPerActivate::640-767           62      1.22%     93.48% # Bytes accessed per row activation
system.mem_ctrls.bytesPerActivate::768-895           30      0.59%     94.07% # Bytes accessed per row activation
system.mem_ctrls.bytesPerActivate::896-1023           27      0.53%     94.60% # Bytes accessed per row activation
system.mem_ctrls.bytesPerActivate::1024-1151          274      5.40%    100.00% # Bytes accessed per row activation
system.mem_ctrls.bytesPerActivate::total         5074                       # Bytes accessed per row activation
system.mem_ctrls.totQLat                    501051240                       # Total ticks spent queuing
system.mem_ctrls.totMemAccLat               767619990                       # Total ticks spent from burst creation until serviced by the DRAM
system.mem_ctrls.totBusLat                   71085000                       # Total ticks spent in databus transfers
system.mem_ctrls.avgQLat                     35243.11                       # Average queueing delay per DRAM burst
system.mem_ctrls.avgBusLat                    5000.00                       # Average bus latency per DRAM burst
system.mem_ctrls.avgMemAccLat                53993.11                       # Average memory access latency per DRAM burst
system.mem_ctrls.avgRdBW                        25.32                       # Average DRAM read bandwidth in MiByte/s
system.mem_ctrls.avgWrBW                         0.00                       # Average achieved write bandwidth in MiByte/s
system.mem_ctrls.avgRdBWSys                     25.32                       # Average system read bandwidth in MiByte/s
system.mem_ctrls.avgWrBWSys                      0.00                       # Average system write bandwidth in MiByte/s
system.mem_ctrls.peakBW                      12800.00                       # Theoretical peak bandwidth in MiByte/s
system.mem_ctrls.busUtil                         0.20                       # Data bus utilization in percentage
system.mem_ctrls.busUtilRead                     0.20                       # Data bus utilization in percentage for reads
system.mem_ctrls.busUtilWrite                    0.00                       # Data bus utilization in percentage for writes
system.mem_ctrls.avgRdQLen                       1.02                       # Average read queue length when enqueuing
system.mem_ctrls.avgWrQLen                       0.00                       # Average write queue length when enqueuing
system.mem_ctrls.readRowHits                     9133                       # Number of row buffer hits during reads
system.mem_ctrls.writeRowHits                       0                       # Number of row buffer hits during writes
system.mem_ctrls.readRowHitRate                 64.24                       # Row buffer hit rate for reads
system.mem_ctrls.writeRowHitRate                  nan                       # Row buffer hit rate for writes
system.mem_ctrls.avgGap                    2527352.36                       # Average gap between requests
system.mem_ctrls.pageHitRate                    64.24                       # Row buffer hit rate, read and write combined
system.mem_ctrls_0.actEnergy                 16072140                       # Energy for activate commands per rank (pJ)
system.mem_ctrls_0.preEnergy                  8523570                       # Energy for precharge commands per rank (pJ)
system.mem_ctrls_0.readEnergy                49023240                       # Energy for read commands per rank (pJ)
system.mem_ctrls_0.writeEnergy                      0                       # Energy for write commands per rank (pJ)
system.mem_ctrls_0.refreshEnergy         25814880.000000                       # Energy for refresh commands per rank (pJ)
system.mem_ctrls_0.actBackEnergy             76587480                       # Energy for active background per rank (pJ)
system.mem_ctrls_0.preBackEnergy               927840                       # Energy for precharge background per rank (pJ)
system.mem_ctrls_0.actPowerDownEnergy        46159170                       # Energy for active power-down per rank (pJ)
system.mem_ctrls_0.prePowerDownEnergy        11577600                       # Energy for precharge power-down per rank (pJ)
system.mem_ctrls_0.selfRefreshEnergy       8553333960                       # Energy for self refresh per rank (pJ)
system.mem_ctrls_0.totalEnergy             8788019880                       # Total energy per rank (pJ)
system.mem_ctrls_0.averagePower            244.577482                       # Core power per rank (mW)
system.mem_ctrls_0.totalIdleTime          35761061274                       # Total Idle time Per DRAM Rank
system.mem_ctrls_0.memoryStateTime::IDLE      1298250                       # Time in different power states
system.mem_ctrls_0.memoryStateTime::REF      10944000                       # Time in different power states
system.mem_ctrls_0.memoryStateTime::SREF  35629686500                       # Time in different power states
system.mem_ctrls_0.memoryStateTime::PRE_PDN     30149500                       # Time in different power states
system.mem_ctrls_0.memoryStateTime::ACT     158100226                       # Time in different power states
system.mem_ctrls_0.memoryStateTime::ACT_PDN    101255524                       # Time in different power states
system.mem_ctrls_1.actEnergy                 20227620                       # Energy for activate commands per rank (pJ)
system.mem_ctrls_1.preEnergy                 10732260                       # Energy for precharge commands per rank (pJ)
system.mem_ctrls_1.readEnergy                52486140                       # Energy for read commands per rank (pJ)
system.mem_ctrls_1.writeEnergy                      0                       # Energy for write commands per rank (pJ)
system.mem_ctrls_1.refreshEnergy         27044160.000000                       # Energy for refresh commands per rank (pJ)
system.mem_ctrls_1.actBackEnergy             79398720                       # Energy for active background per rank (pJ)
system.mem_ctrls_1.preBackEnergy               911040                       # Energy for precharge background per rank (pJ)
system.mem_ctrls_1.actPowerDownEnergy        50442720                       # Energy for active power-down per rank (pJ)
system.mem_ctrls_1.prePowerDownEnergy        11593440                       # Energy for precharge power-down per rank (pJ)
system.mem_ctrls_1.selfRefreshEnergy       8549600460                       # Energy for self refresh per rank (pJ)
system.mem_ctrls_1.totalEnergy             8802436560                       # Total energy per rank (pJ)
system.mem_ctrls_1.averagePower            244.978709                       # Core power per rank (mW)
system.mem_ctrls_1.totalIdleTime          35754762282                       # Total Idle time Per DRAM Rank
system.mem_ctrls_1.memoryStateTime::IDLE      1189501                       # Time in different power states
system.mem_ctrls_1.memoryStateTime::REF      11464000                       # Time in different power states
system.mem_ctrls_1.memoryStateTime::SREF  35614130500                       # Time in different power states
system.mem_ctrls_1.memoryStateTime::PRE_PDN     30189500                       # Time in different power states
system.mem_ctrls_1.memoryStateTime::ACT     163882967                       # Time in different power states
system.mem_ctrls_1.memoryStateTime::ACT_PDN    110577532                       # Time in different power states
system.pwrStateResidencyTicks::UNDEFINED  35931434000                       # Cumulative time (in ticks) in various power states
system.cpu0.branchPred.lookups               10595168                       # Number of BP lookups
system.cpu0.branchPred.condPredicted         10595168                       # Number of conditional branches predicted
system.cpu0.branchPred.condIncorrect             8401                       # Number of conditional branches incorrect
system.cpu0.branchPred.BTBLookups             9868326                       # Number of BTB lookups
system.cpu0.branchPred.BTBHits                      0                       # Number of BTB hits
system.cpu0.branchPred.BTBCorrect                   0                       # Number of correct BTB predictions (this stat may not work properly.
system.cpu0.branchPred.BTBHitPct             0.000000                       # BTB Hit Percentage
system.cpu0.branchPred.usedRAS                 705336                       # Number of times the RAS was used to get a target.
system.cpu0.branchPred.RASInCorrect               453                       # Number of incorrect RAS predictions.
system.cpu0.branchPred.indirectLookups        9868326                       # Number of indirect predictor lookups.
system.cpu0.branchPred.indirectHits           5629019                       # Number of indirect target hits.
system.cpu0.branchPred.indirectMisses         4239307                       # Number of indirect misses.
system.cpu0.branchPredindirectMispredicted         4481                       # Number of mispredicted indirect branches.
system.cpu_voltage_domain.voltage                   1                       # Voltage in Volts
system.cpu0.clk_domain.clock                      500                       # Clock period in ticks
system.cpu0.dtb.walker.pwrStateResidencyTicks::UNDEFINED  35931434000                       # Cumulative time (in ticks) in various power states
system.cpu0.apic_clk_domain.clock                8000                       # Clock period in ticks
system.cpu0.interrupts.pwrStateResidencyTicks::UNDEFINED  35931434000                       # Cumulative time (in ticks) in various power states
system.cpu0.itb.walker.pwrStateResidencyTicks::UNDEFINED  35931434000                       # Cumulative time (in ticks) in various power states
system.cpu0.workload.num_syscalls              703058                       # Number of system calls
system.cpu0.pwrStateResidencyTicks::ON    35931434000                       # Cumulative time (in ticks) in various power states
system.cpu0.numCycles                        71862869                       # number of cpu cycles simulated
system.cpu0.numWorkItemsStarted                     0                       # number of work items this cpu started
system.cpu0.numWorkItemsCompleted                   0                       # number of work items this cpu completed
system.cpu0.fetch.icacheStallCycles           4998276                       # Number of cycles fetch is stalled on an Icache miss
system.cpu0.fetch.Insts                      29816988                       # Number of instructions fetch has processed
system.cpu0.fetch.Branches                   10595168                       # Number of branches that fetch encountered
system.cpu0.fetch.predictedBranches           6334355                       # Number of branches that fetch has predicted taken
system.cpu0.fetch.Cycles                     66751684                       # Number of cycles fetch has run and was not squashing or blocked
system.cpu0.fetch.SquashCycles                  16941                       # Number of cycles fetch has spent squashing
system.cpu0.fetch.MiscStallCycles               10065                       # Number of cycles fetch has spent waiting on interrupts, or bad addresses, or out of MSHRs
system.cpu0.fetch.PendingTrapStallCycles          747                       # Number of stall cycles due to pending traps
system.cpu0.fetch.PendingQuiesceStallCycles           13                       # Number of stall cycles due to pending quiesce instructions
system.cpu0.fetch.IcacheWaitRetryStallCycles         7694                       # Number of stall cycles due to full MSHR
system.cpu0.fetch.CacheLines                  4969052                       # Number of cache lines fetched
system.cpu0.fetch.IcacheSquashes                 2424                       # Number of outstanding Icache misses that were squashed
system.cpu0.fetch.rateDist::samples          71776949                       # Number of instructions fetched each cycle (Total)
system.cpu0.fetch.rateDist::mean             0.830068                       # Number of instructions fetched each cycle (Total)
system.cpu0.fetch.rateDist::stdev            2.184844                       # Number of instructions fetched each cycle (Total)
system.cpu0.fetch.rateDist::underflows              0      0.00%      0.00% # Number of instructions fetched each cycle (Total)
system.cpu0.fetch.rateDist::0                61153926     85.20%     85.20% # Number of instructions fetched each cycle (Total)
system.cpu0.fetch.rateDist::1                  711371      0.99%     86.19% # Number of instructions fetched each cycle (Total)
system.cpu0.fetch.rateDist::2                  355111      0.49%     86.69% # Number of instructions fetched each cycle (Total)
system.cpu0.fetch.rateDist::3                 1062581      1.48%     88.17% # Number of instructions fetched each cycle (Total)
system.cpu0.fetch.rateDist::4                 2444097      3.41%     91.57% # Number of instructions fetched each cycle (Total)
system.cpu0.fetch.rateDist::5                    7562      0.01%     91.58% # Number of instructions fetched each cycle (Total)
system.cpu0.fetch.rateDist::6                 1060902      1.48%     93.06% # Number of instructions fetched each cycle (Total)
system.cpu0.fetch.rateDist::7                 1060407      1.48%     94.54% # Number of instructions fetched each cycle (Total)
system.cpu0.fetch.rateDist::8                 3920992      5.46%    100.00% # Number of instructions fetched each cycle (Total)
system.cpu0.fetch.rateDist::overflows               0      0.00%    100.00% # Number of instructions fetched each cycle (Total)
system.cpu0.fetch.rateDist::min_value               0                       # Number of instructions fetched each cycle (Total)
system.cpu0.fetch.rateDist::max_value               8                       # Number of instructions fetched each cycle (Total)
system.cpu0.fetch.rateDist::total            71776949                       # Number of instructions fetched each cycle (Total)
system.cpu0.fetch.branchRate                 0.147436                       # Number of branch fetches per cycle
system.cpu0.fetch.rate                       0.414915                       # Number of inst fetches per cycle
system.cpu0.decode.IdleCycles                 2001574                       # Number of cycles decode is idle
system.cpu0.decode.BlockedCycles             61439922                       # Number of cycles decode is blocked
system.cpu0.decode.RunCycles                  3602186                       # Number of cycles decode is running
system.cpu0.decode.UnblockCycles              4724797                       # Number of cycles decode is unblocking
system.cpu0.decode.SquashCycles                  8470                       # Number of cycles decode is squashing
system.cpu0.decode.DecodedInsts              59499523                       # Number of instructions handled by decode
system.cpu0.rename.SquashCycles                  8470                       # Number of cycles rename is squashing
system.cpu0.rename.IdleCycles                 3501334                       # Number of cycles rename is idle
system.cpu0.rename.BlockCycles                7616238                       # Number of cycles rename is blocking
system.cpu0.rename.serializeStallCycles      47613540                       # count of cycles rename stalled for serializing inst
system.cpu0.rename.RunCycles                  5175862                       # Number of cycles rename is running
system.cpu0.rename.UnblockCycles              7861505                       # Number of cycles rename is unblocking
system.cpu0.rename.RenamedInsts              59458870                       # Number of instructions processed by rename
system.cpu0.rename.ROBFullEvents              4448707                       # Number of times rename has blocked due to ROB full
system.cpu0.rename.IQFullEvents                 13072                       # Number of times rename has blocked due to IQ full
system.cpu0.rename.LQFullEvents               1793967                       # Number of times rename has blocked due to LQ full
system.cpu0.rename.SQFullEvents                 42381                       # Number of times rename has blocked due to SQ full
system.cpu0.rename.RenamedOperands           63797399                       # Number of destination operands rename has renamed
system.cpu0.rename.RenameLookups            135089576                       # Number of register rename lookups that rename has made
system.cpu0.rename.int_rename_lookups        66454764                       # Number of integer rename lookups
system.cpu0.rename.fp_rename_lookups            17620                       # Number of floating rename lookups
system.cpu0.rename.CommittedMaps             63300371                       # Number of HB maps that are committed
system.cpu0.rename.UndoneMaps                  497028                       # Number of HB maps that are undone due to squashing
system.cpu0.rename.serializingInsts            703093                       # count of serializing insts renamed
system.cpu0.rename.tempSerializingInsts        703096                       # count of temporary serializing insts renamed
system.cpu0.rename.skidInsts                 27594985                       # count of insts added to the skid buffer
system.cpu0.memDep0.insertedLoads             8473972                       # Number of loads inserted to the mem dependence unit.
system.cpu0.memDep0.insertedStores             724099                       # Number of stores inserted to the mem dependence unit.
system.cpu0.memDep0.conflictingLoads             1149                       # Number of conflicting loads.
system.cpu0.memDep0.conflictingStores             299                       # Number of conflicting stores.
system.cpu0.iq.iqInstsAdded                  58682351                       # Number of instructions added to the IQ (excludes non-spec)
system.cpu0.iq.iqNonSpecInstsAdded             703134                       # Number of non-speculative instructions added to the IQ
system.cpu0.iq.iqInstsIssued                 59386565                       # Number of instructions issued
system.cpu0.iq.iqSquashedInstsIssued             6714                       # Number of squashed instructions issued
system.cpu0.iq.iqSquashedInstsExamined         328966                       # Number of squashed instructions iterated over during squash; mainly for profiling
system.cpu0.iq.iqSquashedOperandsExamined       495931                       # Number of squashed operands that are examined and possibly removed from graph
system.cpu0.iq.iqSquashedNonSpecRemoved            76                       # Number of squashed non-spec instructions that were removed
system.cpu0.iq.issued_per_cycle::samples     71776949                       # Number of insts issued each cycle
system.cpu0.iq.issued_per_cycle::mean        0.827377                       # Number of insts issued each cycle
system.cpu0.iq.issued_per_cycle::stdev       1.590431                       # Number of insts issued each cycle
system.cpu0.iq.issued_per_cycle::underflows            0      0.00%      0.00% # Number of insts issued each cycle
system.cpu0.iq.issued_per_cycle::0           48715436     67.87%     67.87% # Number of insts issued each cycle
system.cpu0.iq.issued_per_cycle::1            9713821     13.53%     81.40% # Number of insts issued each cycle
system.cpu0.iq.issued_per_cycle::2            3227289      4.50%     85.90% # Number of insts issued each cycle
system.cpu0.iq.issued_per_cycle::3            4657410      6.49%     92.39% # Number of insts issued each cycle
system.cpu0.iq.issued_per_cycle::4            1661668      2.32%     94.70% # Number of insts issued each cycle
system.cpu0.iq.issued_per_cycle::5            2001112      2.79%     97.49% # Number of insts issued each cycle
system.cpu0.iq.issued_per_cycle::6             722501      1.01%     98.50% # Number of insts issued each cycle
system.cpu0.iq.issued_per_cycle::7             362998      0.51%     99.00% # Number of insts issued each cycle
system.cpu0.iq.issued_per_cycle::8             714714      1.00%    100.00% # Number of insts issued each cycle
system.cpu0.iq.issued_per_cycle::overflows            0      0.00%    100.00% # Number of insts issued each cycle
system.cpu0.iq.issued_per_cycle::min_value            0                       # Number of insts issued each cycle
system.cpu0.iq.issued_per_cycle::max_value            8                       # Number of insts issued each cycle
system.cpu0.iq.issued_per_cycle::total       71776949                       # Number of insts issued each cycle
system.cpu0.iq.fu_full::No_OpClass                  0      0.00%      0.00% # attempts to use FU when none available
system.cpu0.iq.fu_full::IntAlu                   5758     25.61%     25.61% # attempts to use FU when none available
system.cpu0.iq.fu_full::IntMult                     0      0.00%     25.61% # attempts to use FU when none available
system.cpu0.iq.fu_full::IntDiv                      0      0.00%     25.61% # attempts to use FU when none available
system.cpu0.iq.fu_full::FloatAdd                   50      0.22%     25.83% # attempts to use FU when none available
system.cpu0.iq.fu_full::FloatCmp                    0      0.00%     25.83% # attempts to use FU when none available
system.cpu0.iq.fu_full::FloatCvt                    0      0.00%     25.83% # attempts to use FU when none available
system.cpu0.iq.fu_full::FloatMult                   0      0.00%     25.83% # attempts to use FU when none available
system.cpu0.iq.fu_full::FloatMultAcc                0      0.00%     25.83% # attempts to use FU when none available
system.cpu0.iq.fu_full::FloatDiv                    0      0.00%     25.83% # attempts to use FU when none available
system.cpu0.iq.fu_full::FloatMisc                   0      0.00%     25.83% # attempts to use FU when none available
system.cpu0.iq.fu_full::FloatSqrt                   0      0.00%     25.83% # attempts to use FU when none available
system.cpu0.iq.fu_full::SimdAdd                     0      0.00%     25.83% # attempts to use FU when none available
system.cpu0.iq.fu_full::SimdAddAcc                  0      0.00%     25.83% # attempts to use FU when none available
system.cpu0.iq.fu_full::SimdAlu                     0      0.00%     25.83% # attempts to use FU when none available
system.cpu0.iq.fu_full::SimdCmp                     0      0.00%     25.83% # attempts to use FU when none available
system.cpu0.iq.fu_full::SimdCvt                     0      0.00%     25.83% # attempts to use FU when none available
system.cpu0.iq.fu_full::SimdMisc                    0      0.00%     25.83% # attempts to use FU when none available
system.cpu0.iq.fu_full::SimdMult                    0      0.00%     25.83% # attempts to use FU when none available
system.cpu0.iq.fu_full::SimdMultAcc                 0      0.00%     25.83% # attempts to use FU when none available
system.cpu0.iq.fu_full::SimdShift                   0      0.00%     25.83% # attempts to use FU when none available
system.cpu0.iq.fu_full::SimdShiftAcc                0      0.00%     25.83% # attempts to use FU when none available
system.cpu0.iq.fu_full::SimdSqrt                    0      0.00%     25.83% # attempts to use FU when none available
system.cpu0.iq.fu_full::SimdFloatAdd                0      0.00%     25.83% # attempts to use FU when none available
system.cpu0.iq.fu_full::SimdFloatAlu                0      0.00%     25.83% # attempts to use FU when none available
system.cpu0.iq.fu_full::SimdFloatCmp                0      0.00%     25.83% # attempts to use FU when none available
system.cpu0.iq.fu_full::SimdFloatCvt                0      0.00%     25.83% # attempts to use FU when none available
system.cpu0.iq.fu_full::SimdFloatDiv                0      0.00%     25.83% # attempts to use FU when none available
system.cpu0.iq.fu_full::SimdFloatMisc               0      0.00%     25.83% # attempts to use FU when none available
system.cpu0.iq.fu_full::SimdFloatMult               0      0.00%     25.83% # attempts to use FU when none available
system.cpu0.iq.fu_full::SimdFloatMultAcc            0      0.00%     25.83% # attempts to use FU when none available
system.cpu0.iq.fu_full::SimdFloatSqrt               0      0.00%     25.83% # attempts to use FU when none available
system.cpu0.iq.fu_full::MemRead                 15830     70.40%     96.23% # attempts to use FU when none available
system.cpu0.iq.fu_full::MemWrite                  702      3.12%     99.36% # attempts to use FU when none available
system.cpu0.iq.fu_full::FloatMemRead               94      0.42%     99.77% # attempts to use FU when none available
system.cpu0.iq.fu_full::FloatMemWrite              51      0.23%    100.00% # attempts to use FU when none available
system.cpu0.iq.fu_full::IprAccess                   0      0.00%    100.00% # attempts to use FU when none available
system.cpu0.iq.fu_full::InstPrefetch                0      0.00%    100.00% # attempts to use FU when none available
system.cpu0.iq.FU_type_0::No_OpClass             4172      0.01%      0.01% # Type of FU issued
system.cpu0.iq.FU_type_0::IntAlu             49731644     83.74%     83.75% # Type of FU issued
system.cpu0.iq.FU_type_0::IntMult              351582      0.59%     84.34% # Type of FU issued
system.cpu0.iq.FU_type_0::IntDiv                 1211      0.00%     84.34% # Type of FU issued
system.cpu0.iq.FU_type_0::FloatAdd               4248      0.01%     84.35% # Type of FU issued
system.cpu0.iq.FU_type_0::FloatCmp                  0      0.00%     84.35% # Type of FU issued
system.cpu0.iq.FU_type_0::FloatCvt                  0      0.00%     84.35% # Type of FU issued
system.cpu0.iq.FU_type_0::FloatMult                 0      0.00%     84.35% # Type of FU issued
system.cpu0.iq.FU_type_0::FloatMultAcc              0      0.00%     84.35% # Type of FU issued
system.cpu0.iq.FU_type_0::FloatDiv                  0      0.00%     84.35% # Type of FU issued
system.cpu0.iq.FU_type_0::FloatMisc                 0      0.00%     84.35% # Type of FU issued
system.cpu0.iq.FU_type_0::FloatSqrt                 0      0.00%     84.35% # Type of FU issued
system.cpu0.iq.FU_type_0::SimdAdd                   0      0.00%     84.35% # Type of FU issued
system.cpu0.iq.FU_type_0::SimdAddAcc                0      0.00%     84.35% # Type of FU issued
system.cpu0.iq.FU_type_0::SimdAlu                   0      0.00%     84.35% # Type of FU issued
system.cpu0.iq.FU_type_0::SimdCmp                   0      0.00%     84.35% # Type of FU issued
system.cpu0.iq.FU_type_0::SimdCvt                   0      0.00%     84.35% # Type of FU issued
system.cpu0.iq.FU_type_0::SimdMisc                  0      0.00%     84.35% # Type of FU issued
system.cpu0.iq.FU_type_0::SimdMult                  0      0.00%     84.35% # Type of FU issued
system.cpu0.iq.FU_type_0::SimdMultAcc               0      0.00%     84.35% # Type of FU issued
system.cpu0.iq.FU_type_0::SimdShift                 0      0.00%     84.35% # Type of FU issued
system.cpu0.iq.FU_type_0::SimdShiftAcc              0      0.00%     84.35% # Type of FU issued
system.cpu0.iq.FU_type_0::SimdSqrt                  0      0.00%     84.35% # Type of FU issued
system.cpu0.iq.FU_type_0::SimdFloatAdd              0      0.00%     84.35% # Type of FU issued
system.cpu0.iq.FU_type_0::SimdFloatAlu              0      0.00%     84.35% # Type of FU issued
system.cpu0.iq.FU_type_0::SimdFloatCmp              0      0.00%     84.35% # Type of FU issued
system.cpu0.iq.FU_type_0::SimdFloatCvt              0      0.00%     84.35% # Type of FU issued
system.cpu0.iq.FU_type_0::SimdFloatDiv              0      0.00%     84.35% # Type of FU issued
system.cpu0.iq.FU_type_0::SimdFloatMisc             0      0.00%     84.35% # Type of FU issued
system.cpu0.iq.FU_type_0::SimdFloatMult             0      0.00%     84.35% # Type of FU issued
system.cpu0.iq.FU_type_0::SimdFloatMultAcc            0      0.00%     84.35% # Type of FU issued
system.cpu0.iq.FU_type_0::SimdFloatSqrt             0      0.00%     84.35% # Type of FU issued
system.cpu0.iq.FU_type_0::MemRead             8568865     14.43%     98.78% # Type of FU issued
system.cpu0.iq.FU_type_0::MemWrite             719203      1.21%     99.99% # Type of FU issued
system.cpu0.iq.FU_type_0::FloatMemRead           5196      0.01%    100.00% # Type of FU issued
system.cpu0.iq.FU_type_0::FloatMemWrite           444      0.00%    100.00% # Type of FU issued
system.cpu0.iq.FU_type_0::IprAccess                 0      0.00%    100.00% # Type of FU issued
system.cpu0.iq.FU_type_0::InstPrefetch              0      0.00%    100.00% # Type of FU issued
system.cpu0.iq.FU_type_0::total              59386565                       # Type of FU issued
system.cpu0.iq.rate                          0.826387                       # Inst issue rate
system.cpu0.iq.fu_busy_cnt                      22485                       # FU busy when requested
system.cpu0.iq.fu_busy_rate                  0.000379                       # FU busy rate (busy events/executed inst)
system.cpu0.iq.int_inst_queue_reads         190558780                       # Number of integer instruction queue reads
system.cpu0.iq.int_inst_queue_writes         59698832                       # Number of integer instruction queue writes
system.cpu0.iq.int_inst_queue_wakeup_accesses     59237928                       # Number of integer instruction queue wakeup accesses
system.cpu0.iq.fp_inst_queue_reads              20498                       # Number of floating instruction queue reads
system.cpu0.iq.fp_inst_queue_writes             15674                       # Number of floating instruction queue writes
system.cpu0.iq.fp_inst_queue_wakeup_accesses         6149                       # Number of floating instruction queue wakeup accesses
system.cpu0.iq.int_alu_accesses              59394665                       # Number of integer alu accesses
system.cpu0.iq.fp_alu_accesses                  10213                       # Number of floating point alu accesses
system.cpu0.iew.lsq.thread0.forwLoads            2807                       # Number of loads that had data forwarded from stores
system.cpu0.iew.lsq.thread0.invAddrLoads            0                       # Number of loads ignored due to an invalid address
system.cpu0.iew.lsq.thread0.squashedLoads        45261                       # Number of loads squashed
system.cpu0.iew.lsq.thread0.ignoredResponses           19                       # Number of memory responses ignored because the instruction is squashed
system.cpu0.iew.lsq.thread0.memOrderViolation           62                       # Number of memory ordering violations
system.cpu0.iew.lsq.thread0.squashedStores         9855                       # Number of stores squashed
system.cpu0.iew.lsq.thread0.invAddrSwpfs            0                       # Number of software prefetches ignored due to an invalid address
system.cpu0.iew.lsq.thread0.blockedLoads            0                       # Number of blocked loads due to partial load-store forwarding
system.cpu0.iew.lsq.thread0.rescheduledLoads            4                       # Number of loads that were rescheduled
system.cpu0.iew.lsq.thread0.cacheBlocked       112684                       # Number of times an access to memory failed due to the cache being blocked
system.cpu0.iew.iewIdleCycles                       0                       # Number of cycles IEW is idle
system.cpu0.iew.iewSquashCycles                  8470                       # Number of cycles IEW is squashing
system.cpu0.iew.iewBlockCycles                 122860                       # Number of cycles IEW is blocking
system.cpu0.iew.iewUnblockCycles                 5700                       # Number of cycles IEW is unblocking
system.cpu0.iew.iewDispatchedInsts           59385485                       # Number of instructions dispatched to IQ
system.cpu0.iew.iewDispSquashedInsts             2063                       # Number of squashed instructions skipped by dispatch
system.cpu0.iew.iewDispLoadInsts              8473972                       # Number of dispatched load instructions
system.cpu0.iew.iewDispStoreInsts              724099                       # Number of dispatched store instructions
system.cpu0.iew.iewDispNonSpecInsts            703101                       # Number of dispatched non-speculative instructions
system.cpu0.iew.iewIQFullEvents                   567                       # Number of times the IQ has become full, causing a stall
system.cpu0.iew.iewLSQFullEvents                 4735                       # Number of times the LSQ has become full, causing a stall
system.cpu0.iew.memOrderViolationEvents            62                       # Number of memory order violations
system.cpu0.iew.predictedTakenIncorrect          1858                       # Number of branches that were predicted taken incorrectly
system.cpu0.iew.predictedNotTakenIncorrect         8842                       # Number of branches that were predicted not taken incorrectly
system.cpu0.iew.branchMispredicts               10700                       # Number of branch mispredicts detected at execute
system.cpu0.iew.iewExecutedInsts             59366153                       # Number of executed instructions
system.cpu0.iew.iewExecLoadInsts              8567911                       # Number of load instructions executed
system.cpu0.iew.iewExecSquashedInsts            20412                       # Number of squashed instructions skipped in execute
system.cpu0.iew.exec_swp                            0                       # number of swp insts executed
system.cpu0.iew.exec_nop                            0                       # number of nop insts executed
system.cpu0.iew.exec_refs                     9286590                       # number of memory reference insts executed
system.cpu0.iew.exec_branches                10544957                       # Number of branches executed
system.cpu0.iew.exec_stores                    718679                       # Number of stores executed
system.cpu0.iew.exec_rate                    0.826103                       # Inst execution rate
system.cpu0.iew.wb_sent                      59248950                       # cumulative count of insts sent to commit
system.cpu0.iew.wb_count                     59244077                       # cumulative count of insts written-back
system.cpu0.iew.wb_producers                 40578366                       # num instructions producing a value
system.cpu0.iew.wb_consumers                 59706045                       # num instructions consuming a value
system.cpu0.iew.wb_rate                      0.824405                       # insts written-back per cycle
system.cpu0.iew.wb_fanout                    0.679636                       # average fanout of values written-back
system.cpu0.commit.commitSquashedInsts         329041                       # The number of squashed insts skipped by commit
system.cpu0.commit.commitNonSpecStalls         703058                       # The number of times commit has been forced to stall to communicate backwards
system.cpu0.commit.branchMispredicts             8421                       # The number of times a branch was mispredicted
system.cpu0.commit.committed_per_cycle::samples     71727547                       # Number of insts commited each cycle
system.cpu0.commit.committed_per_cycle::mean     0.823345                       # Number of insts commited each cycle
system.cpu0.commit.committed_per_cycle::stdev     2.037476                       # Number of insts commited each cycle
system.cpu0.commit.committed_per_cycle::underflows            0      0.00%      0.00% # Number of insts commited each cycle
system.cpu0.commit.committed_per_cycle::0     55198719     76.96%     76.96% # Number of insts commited each cycle
system.cpu0.commit.committed_per_cycle::1      6325537      8.82%     85.77% # Number of insts commited each cycle
system.cpu0.commit.committed_per_cycle::2      1415495      1.97%     87.75% # Number of insts commited each cycle
system.cpu0.commit.committed_per_cycle::3      3858899      5.38%     93.13% # Number of insts commited each cycle
system.cpu0.commit.committed_per_cycle::4         8530      0.01%     93.14% # Number of insts commited each cycle
system.cpu0.commit.committed_per_cycle::5         4964      0.01%     93.15% # Number of insts commited each cycle
system.cpu0.commit.committed_per_cycle::6       353011      0.49%     93.64% # Number of insts commited each cycle
system.cpu0.commit.committed_per_cycle::7       352847      0.49%     94.13% # Number of insts commited each cycle
system.cpu0.commit.committed_per_cycle::8      4209545      5.87%    100.00% # Number of insts commited each cycle
system.cpu0.commit.committed_per_cycle::overflows            0      0.00%    100.00% # Number of insts commited each cycle
system.cpu0.commit.committed_per_cycle::min_value            0                       # Number of insts commited each cycle
system.cpu0.commit.committed_per_cycle::max_value            8                       # Number of insts commited each cycle
system.cpu0.commit.committed_per_cycle::total     71727547                       # Number of insts commited each cycle
system.cpu0.commit.committedInsts            29538862                       # Number of instructions committed
system.cpu0.commit.committedOps              59056519                       # Number of ops (including micro ops) committed
system.cpu0.commit.swp_count                        0                       # Number of s/w prefetches committed
system.cpu0.commit.refs                       9142955                       # Number of memory references committed
system.cpu0.commit.loads                      8428711                       # Number of loads committed
system.cpu0.commit.membars                          0                       # Number of memory barriers committed
system.cpu0.commit.branches                  10531823                       # Number of branches committed
system.cpu0.commit.fp_insts                      3624                       # Number of committed floating point instructions.
system.cpu0.commit.int_insts                 59053070                       # Number of committed integer instructions.
system.cpu0.commit.function_calls              703724                       # Number of function calls committed.
system.cpu0.commit.op_class_0::No_OpClass         1326      0.00%      0.00% # Class of committed instruction
system.cpu0.commit.op_class_0::IntAlu        49557150     83.91%     83.92% # Class of committed instruction
system.cpu0.commit.op_class_0::IntMult         351566      0.60%     84.51% # Class of committed instruction
system.cpu0.commit.op_class_0::IntDiv            1171      0.00%     84.51% # Class of committed instruction
system.cpu0.commit.op_class_0::FloatAdd          2351      0.00%     84.52% # Class of committed instruction
system.cpu0.commit.op_class_0::FloatCmp             0      0.00%     84.52% # Class of committed instruction
system.cpu0.commit.op_class_0::FloatCvt             0      0.00%     84.52% # Class of committed instruction
system.cpu0.commit.op_class_0::FloatMult            0      0.00%     84.52% # Class of committed instruction
system.cpu0.commit.op_class_0::FloatMultAcc            0      0.00%     84.52% # Class of committed instruction
system.cpu0.commit.op_class_0::FloatDiv             0      0.00%     84.52% # Class of committed instruction
system.cpu0.commit.op_class_0::FloatMisc            0      0.00%     84.52% # Class of committed instruction
system.cpu0.commit.op_class_0::FloatSqrt            0      0.00%     84.52% # Class of committed instruction
system.cpu0.commit.op_class_0::SimdAdd              0      0.00%     84.52% # Class of committed instruction
system.cpu0.commit.op_class_0::SimdAddAcc            0      0.00%     84.52% # Class of committed instruction
system.cpu0.commit.op_class_0::SimdAlu              0      0.00%     84.52% # Class of committed instruction
system.cpu0.commit.op_class_0::SimdCmp              0      0.00%     84.52% # Class of committed instruction
system.cpu0.commit.op_class_0::SimdCvt              0      0.00%     84.52% # Class of committed instruction
system.cpu0.commit.op_class_0::SimdMisc             0      0.00%     84.52% # Class of committed instruction
system.cpu0.commit.op_class_0::SimdMult             0      0.00%     84.52% # Class of committed instruction
system.cpu0.commit.op_class_0::SimdMultAcc            0      0.00%     84.52% # Class of committed instruction
system.cpu0.commit.op_class_0::SimdShift            0      0.00%     84.52% # Class of committed instruction
system.cpu0.commit.op_class_0::SimdShiftAcc            0      0.00%     84.52% # Class of committed instruction
system.cpu0.commit.op_class_0::SimdSqrt             0      0.00%     84.52% # Class of committed instruction
system.cpu0.commit.op_class_0::SimdFloatAdd            0      0.00%     84.52% # Class of committed instruction
system.cpu0.commit.op_class_0::SimdFloatAlu            0      0.00%     84.52% # Class of committed instruction
system.cpu0.commit.op_class_0::SimdFloatCmp            0      0.00%     84.52% # Class of committed instruction
system.cpu0.commit.op_class_0::SimdFloatCvt            0      0.00%     84.52% # Class of committed instruction
system.cpu0.commit.op_class_0::SimdFloatDiv            0      0.00%     84.52% # Class of committed instruction
system.cpu0.commit.op_class_0::SimdFloatMisc            0      0.00%     84.52% # Class of committed instruction
system.cpu0.commit.op_class_0::SimdFloatMult            0      0.00%     84.52% # Class of committed instruction
system.cpu0.commit.op_class_0::SimdFloatMultAcc            0      0.00%     84.52% # Class of committed instruction
system.cpu0.commit.op_class_0::SimdFloatSqrt            0      0.00%     84.52% # Class of committed instruction
system.cpu0.commit.op_class_0::MemRead        8427885     14.27%     98.79% # Class of committed instruction
system.cpu0.commit.op_class_0::MemWrite        713860      1.21%    100.00% # Class of committed instruction
system.cpu0.commit.op_class_0::FloatMemRead          826      0.00%    100.00% # Class of committed instruction
system.cpu0.commit.op_class_0::FloatMemWrite          384      0.00%    100.00% # Class of committed instruction
system.cpu0.commit.op_class_0::IprAccess            0      0.00%    100.00% # Class of committed instruction
system.cpu0.commit.op_class_0::InstPrefetch            0      0.00%    100.00% # Class of committed instruction
system.cpu0.commit.op_class_0::total         59056519                       # Class of committed instruction
system.cpu0.commit.bw_lim_events              4209545                       # number cycles where commit BW limit reached
system.cpu0.rob.rob_reads                   126903536                       # The number of ROB reads
system.cpu0.rob.rob_writes                  118821129                       # The number of ROB writes
system.cpu0.timesIdled                            789                       # Number of times that the entire CPU went into an idle state and unscheduled itself
system.cpu0.idleCycles                          85920                       # Total number of cycles that the CPU has spent unscheduled due to idling
system.cpu0.committedInsts                   29538862                       # Number of Instructions Simulated
system.cpu0.committedOps                     59056519                       # Number of Ops (including micro ops) Simulated
system.cpu0.cpi                              2.432825                       # CPI: Cycles Per Instruction
system.cpu0.cpi_total                        2.432825                       # CPI: Total CPI of All Threads
system.cpu0.ipc                              0.411045                       # IPC: Instructions Per Cycle
system.cpu0.ipc_total                        0.411045                       # IPC: Total IPC of All Threads
system.cpu0.int_regfile_reads                66312525                       # number of integer regfile reads
system.cpu0.int_regfile_writes               49031086                       # number of integer regfile writes
system.cpu0.fp_regfile_reads                     9195                       # number of floating regfile reads
system.cpu0.fp_regfile_writes                    5324                       # number of floating regfile writes
system.cpu0.cc_regfile_reads                 35956557                       # number of cc regfile reads
system.cpu0.cc_regfile_writes                15889951                       # number of cc regfile writes
system.cpu0.misc_regfile_reads               32486001                       # number of misc regfile reads
system.cpu1.branchPred.lookups                8734974                       # Number of BP lookups
system.cpu1.branchPred.condPredicted          8734974                       # Number of conditional branches predicted
system.cpu1.branchPred.condIncorrect             8708                       # Number of conditional branches incorrect
system.cpu1.branchPred.BTBLookups             8241421                       # Number of BTB lookups
system.cpu1.branchPred.BTBHits                      0                       # Number of BTB hits
system.cpu1.branchPred.BTBCorrect                   0                       # Number of correct BTB predictions (this stat may not work properly.
system.cpu1.branchPred.BTBHitPct             0.000000                       # BTB Hit Percentage
system.cpu1.branchPred.usedRAS                 472372                       # Number of times the RAS was used to get a target.
system.cpu1.branchPred.RASInCorrect               488                       # Number of incorrect RAS predictions.
system.cpu1.branchPred.indirectLookups        8241421                       # Number of indirect predictor lookups.
system.cpu1.branchPred.indirectHits           4581398                       # Number of indirect target hits.
system.cpu1.branchPred.indirectMisses         3660023                       # Number of indirect misses.
system.cpu1.branchPredindirectMispredicted         4761                       # Number of mispredicted indirect branches.
system.cpu1.clk_domain.clock                      500                       # Clock period in ticks
system.cpu1.dtb.walker.pwrStateResidencyTicks::UNDEFINED  35931434000                       # Cumulative time (in ticks) in various power states
system.cpu1.apic_clk_domain.clock                8000                       # Clock period in ticks
system.cpu1.interrupts.pwrStateResidencyTicks::UNDEFINED  35931434000                       # Cumulative time (in ticks) in various power states
system.cpu1.itb.walker.pwrStateResidencyTicks::UNDEFINED  35931434000                       # Cumulative time (in ticks) in various power states
system.cpu1.workload.num_syscalls              469884                       # Number of system calls
system.cpu1.pwrStateResidencyTicks::ON    35931434000                       # Cumulative time (in ticks) in various power states
system.cpu1.numCycles                        54071833                       # number of cpu cycles simulated
system.cpu1.numWorkItemsStarted                     0                       # number of work items this cpu started
system.cpu1.numWorkItemsCompleted                   0                       # number of work items this cpu completed
system.cpu1.fetch.icacheStallCycles           3132812                       # Number of cycles fetch is stalled on an Icache miss
system.cpu1.fetch.Insts                      24944704                       # Number of instructions fetch has processed
system.cpu1.fetch.Branches                    8734974                       # Number of branches that fetch encountered
system.cpu1.fetch.predictedBranches           5053770                       # Number of branches that fetch has predicted taken
system.cpu1.fetch.Cycles                     50825997                       # Number of cycles fetch has run and was not squashing or blocked
system.cpu1.fetch.SquashCycles                  17545                       # Number of cycles fetch has spent squashing
system.cpu1.fetch.MiscStallCycles               12249                       # Number of cycles fetch has spent waiting on interrupts, or bad addresses, or out of MSHRs
system.cpu1.fetch.NoActiveThreadStallCycles           10                       # Number of stall cycles due to no active thread to fetch from
system.cpu1.fetch.PendingTrapStallCycles          420                       # Number of stall cycles due to pending traps
system.cpu1.fetch.PendingQuiesceStallCycles           13                       # Number of stall cycles due to pending quiesce instructions
system.cpu1.fetch.IcacheWaitRetryStallCycles         6598                       # Number of stall cycles due to full MSHR
system.cpu1.fetch.CacheLines                  3103539                       # Number of cache lines fetched
system.cpu1.fetch.IcacheSquashes                 2608                       # Number of outstanding Icache misses that were squashed
system.cpu1.fetch.rateDist::samples          53986871                       # Number of instructions fetched each cycle (Total)
system.cpu1.fetch.rateDist::mean             0.922984                       # Number of instructions fetched each cycle (Total)
system.cpu1.fetch.rateDist::stdev            2.289422                       # Number of instructions fetched each cycle (Total)
system.cpu1.fetch.rateDist::underflows              0      0.00%      0.00% # Number of instructions fetched each cycle (Total)
system.cpu1.fetch.rateDist::0                45457537     84.20%     84.20% # Number of instructions fetched each cycle (Total)
system.cpu1.fetch.rateDist::1                    8415      0.02%     84.22% # Number of instructions fetched each cycle (Total)
system.cpu1.fetch.rateDist::2                  238476      0.44%     84.66% # Number of instructions fetched each cycle (Total)
system.cpu1.fetch.rateDist::3                  947932      1.76%     86.41% # Number of instructions fetched each cycle (Total)
system.cpu1.fetch.rateDist::4                 2680919      4.97%     91.38% # Number of instructions fetched each cycle (Total)
system.cpu1.fetch.rateDist::5                    8152      0.02%     91.40% # Number of instructions fetched each cycle (Total)
system.cpu1.fetch.rateDist::6                  241211      0.45%     91.84% # Number of instructions fetched each cycle (Total)
system.cpu1.fetch.rateDist::7                  945693      1.75%     93.59% # Number of instructions fetched each cycle (Total)
system.cpu1.fetch.rateDist::8                 3458536      6.41%    100.00% # Number of instructions fetched each cycle (Total)
system.cpu1.fetch.rateDist::overflows               0      0.00%    100.00% # Number of instructions fetched each cycle (Total)
system.cpu1.fetch.rateDist::min_value               0                       # Number of instructions fetched each cycle (Total)
system.cpu1.fetch.rateDist::max_value               8                       # Number of instructions fetched each cycle (Total)
system.cpu1.fetch.rateDist::total            53986871                       # Number of instructions fetched each cycle (Total)
system.cpu1.fetch.branchRate                 0.161544                       # Number of branch fetches per cycle
system.cpu1.fetch.rate                       0.461325                       # Number of inst fetches per cycle
system.cpu1.decode.IdleCycles                 1771692                       # Number of cycles decode is idle
system.cpu1.decode.BlockedCycles             45859715                       # Number of cycles decode is blocked
system.cpu1.decode.RunCycles                  1734472                       # Number of cycles decode is running
system.cpu1.decode.UnblockCycles              4612210                       # Number of cycles decode is unblocking
system.cpu1.decode.SquashCycles                  8772                       # Number of cycles decode is squashing
system.cpu1.decode.DecodedInsts              49745858                       # Number of instructions handled by decode
system.cpu1.rename.SquashCycles                  8772                       # Number of cycles rename is squashing
system.cpu1.rename.IdleCycles                 2967176                       # Number of cycles rename is idle
system.cpu1.rename.BlockCycles                7686518                       # Number of cycles rename is blocking
system.cpu1.rename.serializeStallCycles      31802482                       # count of cycles rename stalled for serializing inst
system.cpu1.rename.RunCycles                  3444993                       # Number of cycles rename is running
system.cpu1.rename.UnblockCycles              8076920                       # Number of cycles rename is unblocking
system.cpu1.rename.RenamedInsts              49703878                       # Number of instructions processed by rename
system.cpu1.rename.ROBFullEvents              4451503                       # Number of times rename has blocked due to ROB full
system.cpu1.rename.IQFullEvents                 12407                       # Number of times rename has blocked due to IQ full
system.cpu1.rename.LQFullEvents               1777136                       # Number of times rename has blocked due to LQ full
system.cpu1.rename.SQFullEvents                 34672                       # Number of times rename has blocked due to SQ full
system.cpu1.rename.RenamedOperands           54284702                       # Number of destination operands rename has renamed
system.cpu1.rename.RenameLookups            111159131                       # Number of register rename lookups that rename has made
system.cpu1.rename.int_rename_lookups        54496895                       # Number of integer rename lookups
system.cpu1.rename.fp_rename_lookups            18951                       # Number of floating rename lookups
system.cpu1.rename.CommittedMaps             53773749                       # Number of HB maps that are committed
system.cpu1.rename.UndoneMaps                  510953                       # Number of HB maps that are undone due to squashing
system.cpu1.rename.serializingInsts            469919                       # count of serializing insts renamed
system.cpu1.rename.tempSerializingInsts        469922                       # count of temporary serializing insts renamed
system.cpu1.rename.skidInsts                 29471256                       # count of insts added to the skid buffer
system.cpu1.memDep0.insertedLoads             7314358                       # Number of loads inserted to the mem dependence unit.
system.cpu1.memDep0.insertedStores             491938                       # Number of stores inserted to the mem dependence unit.
system.cpu1.memDep0.conflictingLoads             1318                       # Number of conflicting loads.
system.cpu1.memDep0.conflictingStores             361                       # Number of conflicting stores.
system.cpu1.iq.iqInstsAdded                  49157175                       # Number of instructions added to the IQ (excludes non-spec)
system.cpu1.iq.iqNonSpecInstsAdded             469952                       # Number of non-speculative instructions added to the IQ
system.cpu1.iq.iqInstsIssued                 49626280                       # Number of instructions issued
system.cpu1.iq.iqSquashedInstsIssued             6756                       # Number of squashed instructions issued
system.cpu1.iq.iqSquashedInstsExamined         338100                       # Number of squashed instructions iterated over during squash; mainly for profiling
system.cpu1.iq.iqSquashedOperandsExamined       508407                       # Number of squashed operands that are examined and possibly removed from graph
system.cpu1.iq.iqSquashedNonSpecRemoved            68                       # Number of squashed non-spec instructions that were removed
system.cpu1.iq.issued_per_cycle::samples     53986871                       # Number of insts issued each cycle
system.cpu1.iq.issued_per_cycle::mean        0.919229                       # Number of insts issued each cycle
system.cpu1.iq.issued_per_cycle::stdev       1.582953                       # Number of insts issued each cycle
system.cpu1.iq.issued_per_cycle::underflows            0      0.00%      0.00% # Number of insts issued each cycle
system.cpu1.iq.issued_per_cycle::0           34315995     63.56%     63.56% # Number of insts issued each cycle
system.cpu1.iq.issued_per_cycle::1            8001564     14.82%     78.38% # Number of insts issued each cycle
system.cpu1.iq.issued_per_cycle::2            2958768      5.48%     83.87% # Number of insts issued each cycle
system.cpu1.iq.issued_per_cycle::3            4238505      7.85%     91.72% # Number of insts issued each cycle
system.cpu1.iq.issued_per_cycle::4            1563511      2.90%     94.61% # Number of insts issued each cycle
[...]
system.ruby.L1Cache_Controller.Request_Timeout::total         7701                      
system.ruby.L1Cache_Controller.Use_TimeoutNoStarvers |        3591     24.30%     24.30% |        3590     24.29%     48.59% |        3654     24.72%     73.31% |        3728     25.22%     98.54% |         216      1.46%    100.00%
system.ruby.L1Cache_Controller.Use_TimeoutNoStarvers::total        14779                      
system.ruby.L1Cache_Controller.NP.Load   |        2244     24.51%     24.51% |        2216     24.20%     48.71% |        2230     24.35%     73.06% |        2255     24.63%     97.68% |         212      2.32%    100.00%
system.ruby.L1Cache_Controller.NP.Load::total         9157                      
system.ruby.L1Cache_Controller.NP.Ifetch |        1193     25.01%     25.01% |        1185     24.84%     49.85% |        1188     24.91%     74.76% |        1204     25.24%    100.00% |           0      0.00%    100.00%
system.ruby.L1Cache_Controller.NP.Ifetch::total         4770                      
system.ruby.L1Cache_Controller.NP.Store  |         514     22.84%     22.84% |         518     23.02%     45.87% |         579     25.73%     71.60% |         639     28.40%    100.00% |           0      0.00%    100.00%
system.ruby.L1Cache_Controller.NP.Store::total         2250                      
system.ruby.L1Cache_Controller.NP.Transient_Local_GETX |        1867     19.25%     19.25% |        1867     19.25%     38.49% |        1805     18.61%     57.10% |        1739     17.93%     75.03% |        2422     24.97%    100.00%
system.ruby.L1Cache_Controller.NP.Transient_Local_GETX::total         9700                      
system.ruby.L1Cache_Controller.NP.Transient_Local_GETS |       10492     18.90%     18.90% |       10515     18.94%     37.84% |       10450     18.82%     56.66% |       10348     18.64%     75.30% |       13715     24.70%    100.00%
system.ruby.L1Cache_Controller.NP.Transient_Local_GETS::total        55520                      
system.ruby.L1Cache_Controller.NP.Own_Lock_or_Unlock |         760     16.43%     16.43% |         943     20.38%     36.81% |         831     17.96%     54.77% |         940     20.32%     75.08% |        1153     24.92%    100.00%
system.ruby.L1Cache_Controller.NP.Own_Lock_or_Unlock::total         4627                      
system.ruby.L1Cache_Controller.I.Load    |           2     25.00%     25.00% |           2     25.00%     50.00% |           2     25.00%     75.00% |           2     25.00%    100.00% |           0      0.00%    100.00%
system.ruby.L1Cache_Controller.I.Load::total            8                      
system.ruby.L1Cache_Controller.S.Load    |     4905382     39.98%     39.98% |     4092949     33.36%     73.34% |     3265526     26.62%     99.96% |        4755      0.04%    100.00% |           0      0.00%    100.00%
system.ruby.L1Cache_Controller.S.Load::total     12268612                      
system.ruby.L1Cache_Controller.S.Ifetch  |     2813282     30.38%     30.38% |     3055394     32.99%     63.37% |      929860     10.04%     73.41% |     2461913     26.59%    100.00% |           0      0.00%    100.00%
system.ruby.L1Cache_Controller.S.Ifetch::total      9260449                      
system.ruby.L1Cache_Controller.S.Store   |          44     25.43%     25.43% |          40     23.12%     48.55% |          41     23.70%     72.25% |          47     27.17%     99.42% |           1      0.58%    100.00%
system.ruby.L1Cache_Controller.S.Store::total          173                      
system.ruby.L1Cache_Controller.S.L1_Replacement |         217     27.82%     27.82% |         179     22.95%     50.77% |         182     23.33%     74.10% |         202     25.90%    100.00% |           0      0.00%    100.00%
system.ruby.L1Cache_Controller.S.L1_Replacement::total          780                      
system.ruby.L1Cache_Controller.S.Transient_Local_GETX |           1     33.33%     33.33% |           1     33.33%     66.67% |           1     33.33%    100.00% |           0      0.00%    100.00% |           0      0.00%    100.00%
system.ruby.L1Cache_Controller.S.Transient_Local_GETX::total            3                      
system.ruby.L1Cache_Controller.O.Load    |           0      0.00%      0.00% |           0      0.00%      0.00% |           0      0.00%      0.00% |     2453282    100.00%    100.00% |           9      0.00%    100.00%
system.ruby.L1Cache_Controller.O.Load::total      2453291                      
system.ruby.L1Cache_Controller.O.Store   |           0      0.00%      0.00% |           0      0.00%      0.00% |           0      0.00%      0.00% |           0      0.00%      0.00% |           3    100.00%    100.00%
system.ruby.L1Cache_Controller.O.Store::total            3                      
system.ruby.L1Cache_Controller.O.Transient_Local_GETX |           0      0.00%      0.00% |           0      0.00%      0.00% |           0      0.00%      0.00% |           1    100.00%    100.00% |           0      0.00%    100.00%
system.ruby.L1Cache_Controller.O.Transient_Local_GETX::total            1                      
system.ruby.L1Cache_Controller.O.Own_Lock_or_Unlock |           0      0.00%      0.00% |           0      0.00%      0.00% |           0      0.00%      0.00% |           1    100.00%    100.00% |           0      0.00%    100.00%
system.ruby.L1Cache_Controller.O.Own_Lock_or_Unlock::total            1                      
system.ruby.L1Cache_Controller.M.Load    |       16904     21.01%     21.01% |       17310     21.51%     42.52% |       20047     24.91%     67.43% |       23315     28.97%     96.40% |        2895      3.60%    100.00%
system.ruby.L1Cache_Controller.M.Load::total        80471                      
system.ruby.L1Cache_Controller.M.Ifetch  |     2153986     39.47%     39.47% |       46359      0.85%     40.32% |      744542     13.64%     53.97% |     2512002     46.03%    100.00% |           0      0.00%    100.00%
system.ruby.L1Cache_Controller.M.Ifetch::total      5456889                      
system.ruby.L1Cache_Controller.M.Store   |          47     12.21%     12.21% |          46     11.95%     24.16% |          43     11.17%     35.32% |          41     10.65%     45.97% |         208     54.03%    100.00%
system.ruby.L1Cache_Controller.M.Store::total          385                      
system.ruby.L1Cache_Controller.M.L1_Replacement |        1679     24.07%     24.07% |        1692     24.25%     48.32% |        1762     25.26%     73.58% |        1843     26.42%    100.00% |           0      0.00%    100.00%
system.ruby.L1Cache_Controller.M.L1_Replacement::total         6976                      
system.ruby.L1Cache_Controller.M.Transient_Local_GETS |           0      0.00%      0.00% |           0      0.00%      0.00% |           0      0.00%      0.00% |           0      0.00%      0.00% |           3    100.00%    100.00%
system.ruby.L1Cache_Controller.M.Transient_Local_GETS::total            3                      
system.ruby.L1Cache_Controller.M.Persistent_GETS |           0      0.00%      0.00% |           0      0.00%      0.00% |           0      0.00%      0.00% |           0      0.00%      0.00% |           1    100.00%    100.00%
system.ruby.L1Cache_Controller.M.Persistent_GETS::total            1                      
system.ruby.L1Cache_Controller.M.Own_Lock_or_Unlock |         248     31.31%     31.31% |         164     20.71%     52.02% |         185     23.36%     75.38% |         195     24.62%    100.00% |           0      0.00%    100.00%
system.ruby.L1Cache_Controller.M.Own_Lock_or_Unlock::total          792                      
system.ruby.L1Cache_Controller.MM.Load   |      725241     47.96%     47.96% |      490593     32.45%     80.41% |      260708     17.24%     97.65% |       35525      2.35%    100.00% |           0      0.00%    100.00%
system.ruby.L1Cache_Controller.MM.Load::total      1512067                      
system.ruby.L1Cache_Controller.MM.Store  |      711980     49.14%     49.14% |      479137     33.07%     82.21% |      242497     16.74%     98.95% |       12082      0.83%     99.79% |        3112      0.21%    100.00%
system.ruby.L1Cache_Controller.MM.Store::total      1448808                      
system.ruby.L1Cache_Controller.MM.L1_Replacement |         528     25.18%     25.18% |         520     24.80%     49.98% |         522     24.89%     74.87% |         526     25.08%     99.95% |           1      0.05%    100.00%
system.ruby.L1Cache_Controller.MM.L1_Replacement::total         2097                      
system.ruby.L1Cache_Controller.MM.Transient_Local_GETS |           4      1.89%      1.89% |          17      8.02%      9.91% |          65     30.66%     40.57% |         126     59.43%    100.00% |           0      0.00%    100.00%
system.ruby.L1Cache_Controller.MM.Transient_Local_GETS::total          212                      
system.ruby.L1Cache_Controller.MM.Persistent_GETS |           0      0.00%      0.00% |           0      0.00%      0.00% |           0      0.00%      0.00% |           0      0.00%      0.00% |           4    100.00%    100.00%
system.ruby.L1Cache_Controller.MM.Persistent_GETS::total            4                      
system.ruby.L1Cache_Controller.MM.Own_Lock_or_Unlock |         150     41.10%     41.10% |          51     13.97%     55.07% |         142     38.90%     93.97% |          22      6.03%    100.00% |           0      0.00%    100.00%
system.ruby.L1Cache_Controller.MM.Own_Lock_or_Unlock::total          365                      
system.ruby.L1Cache_Controller.M_W.Load  |       11081     24.71%     24.71% |       11160     24.89%     49.60% |       11055     24.65%     74.25% |       11335     25.28%     99.53% |         212      0.47%    100.00%
system.ruby.L1Cache_Controller.M_W.Load::total        44843                      
system.ruby.L1Cache_Controller.M_W.Ifetch |         423     25.22%     25.22% |         421     25.10%     50.33% |         417     24.87%     75.19% |         416     24.81%    100.00% |           0      0.00%    100.00%
system.ruby.L1Cache_Controller.M_W.Ifetch::total         1677                      
system.ruby.L1Cache_Controller.M_W.Store |          11     26.19%     26.19% |          12     28.57%     54.76% |           9     21.43%     76.19% |          10     23.81%    100.00% |           0      0.00%    100.00%
system.ruby.L1Cache_Controller.M_W.Store::total           42                      
system.ruby.L1Cache_Controller.M_W.Transient_Local_GETS |           0      0.00%      0.00% |           0      0.00%      0.00% |           0      0.00%      0.00% |           0      0.00%      0.00% |           1    100.00%    100.00%
system.ruby.L1Cache_Controller.M_W.Transient_Local_GETS::total            1                      
system.ruby.L1Cache_Controller.M_W.Own_Lock_or_Unlock |          17     19.54%     19.54% |          26     29.89%     49.43% |          22     25.29%     74.71% |          22     25.29%    100.00% |           0      0.00%    100.00%
system.ruby.L1Cache_Controller.M_W.Own_Lock_or_Unlock::total           87                      
system.ruby.L1Cache_Controller.M_W.Use_TimeoutNoStarvers |        3022     24.55%     24.55% |        3020     24.53%     49.08% |        3025     24.57%     73.65% |        3032     24.63%     98.28% |         212      1.72%    100.00%
system.ruby.L1Cache_Controller.M_W.Use_TimeoutNoStarvers::total        12311                      
system.ruby.L1Cache_Controller.MM_W.Load |          45     29.80%     29.80% |          32     21.19%     50.99% |          37     24.50%     75.50% |          37     24.50%    100.00% |           0      0.00%    100.00%
system.ruby.L1Cache_Controller.MM_W.Load::total          151                      
system.ruby.L1Cache_Controller.MM_W.Store |        2039     22.73%     22.73% |        2078     23.16%     45.89% |        2284     25.46%     71.35% |        2566     28.60%     99.96% |           4      0.04%    100.00%
system.ruby.L1Cache_Controller.MM_W.Store::total         8971                      
system.ruby.L1Cache_Controller.MM_W.Transient_Local_GETS |           0      0.00%      0.00% |           0      0.00%      0.00% |           0      0.00%      0.00% |           0      0.00%      0.00% |           4    100.00%    100.00%
system.ruby.L1Cache_Controller.MM_W.Transient_Local_GETS::total            4                      
system.ruby.L1Cache_Controller.MM_W.Own_Lock_or_Unlock |           4     23.53%     23.53% |           2     11.76%     35.29% |           6     35.29%     70.59% |           5     29.41%    100.00% |           0      0.00%    100.00%
system.ruby.L1Cache_Controller.MM_W.Own_Lock_or_Unlock::total           17                      
system.ruby.L1Cache_Controller.MM_W.Use_TimeoutNoStarvers |         569     23.06%     23.06% |         570     23.10%     46.15% |         629     25.49%     71.64% |         696     28.20%     99.84% |           4      0.16%    100.00%
system.ruby.L1Cache_Controller.MM_W.Use_TimeoutNoStarvers::total         2468                      
system.ruby.L1Cache_Controller.IM.Data_All_Tokens |         514     22.84%     22.84% |         518     23.02%     45.87% |         579     25.73%     71.60% |         639     28.40%    100.00% |           0      0.00%    100.00%
system.ruby.L1Cache_Controller.IM.Data_All_Tokens::total         2250                      
system.ruby.L1Cache_Controller.IM.Own_Lock_or_Unlock |         146     42.32%     42.32% |          48     13.91%     56.23% |         135     39.13%     95.36% |          16      4.64%    100.00% |           0      0.00%    100.00%
system.ruby.L1Cache_Controller.IM.Own_Lock_or_Unlock::total          345                      
system.ruby.L1Cache_Controller.IM.Request_Timeout |         344     29.50%     29.50% |         269     23.07%     52.57% |         359     30.79%     83.36% |         194     16.64%    100.00% |           0      0.00%    100.00%
system.ruby.L1Cache_Controller.IM.Request_Timeout::total         1166                      
system.ruby.L1Cache_Controller.SM.Data_All_Tokens |          44     25.43%     25.43% |          40     23.12%     48.55% |          41     23.70%     72.25% |          47     27.17%     99.42% |           1      0.58%    100.00%
system.ruby.L1Cache_Controller.SM.Data_All_Tokens::total          173                      
system.ruby.L1Cache_Controller.OM.Ack_All_Tokens |           0      0.00%      0.00% |           0      0.00%      0.00% |           0      0.00%      0.00% |           0      0.00%      0.00% |           3    100.00%    100.00%
system.ruby.L1Cache_Controller.OM.Ack_All_Tokens::total            3                      
system.ruby.L1Cache_Controller.IS.Data_Shared |         405     25.63%     25.63% |         371     23.48%     49.11% |         386     24.43%     73.54% |         418     26.46%    100.00% |           0      0.00%    100.00%
system.ruby.L1Cache_Controller.IS.Data_Shared::total         1580                      
system.ruby.L1Cache_Controller.IS.Data_Owner |           0      0.00%      0.00% |           0      0.00%      0.00% |           0      0.00%      0.00% |           1    100.00%    100.00% |           0      0.00%    100.00%
system.ruby.L1Cache_Controller.IS.Data_Owner::total            1                      
system.ruby.L1Cache_Controller.IS.Data_All_Tokens |        3034     24.56%     24.56% |        3032     24.54%     49.10% |        3034     24.56%     73.66% |        3042     24.62%     98.28% |         212      1.72%    100.00%
system.ruby.L1Cache_Controller.IS.Data_All_Tokens::total        12354                      
system.ruby.L1Cache_Controller.IS.Own_Lock_or_Unlock |         231     32.58%     32.58% |         139     19.61%     52.19% |         164     23.13%     75.32% |         175     24.68%    100.00% |           0      0.00%    100.00%
system.ruby.L1Cache_Controller.IS.Own_Lock_or_Unlock::total          709                      
system.ruby.L1Cache_Controller.IS.Request_Timeout |        2029     31.05%     31.05% |        1506     23.05%     54.09% |        1411     21.59%     75.68% |        1589     24.32%    100.00% |           0      0.00%    100.00%
system.ruby.L1Cache_Controller.IS.Request_Timeout::total         6535                      
system.ruby.L1Cache_Controller.I_L.Persistent_GETX |         212     14.64%     14.64% |         312     21.55%     36.19% |         221     15.26%     51.45% |         341     23.55%     75.00% |         362     25.00%    100.00%
system.ruby.L1Cache_Controller.I_L.Persistent_GETX::total         1448                      
system.ruby.L1Cache_Controller.I_L.Persistent_GETS |         548     17.24%     17.24% |         631     19.85%     37.09% |         610     19.19%     56.28% |         599     18.84%     75.12% |         791     24.88%    100.00%
system.ruby.L1Cache_Controller.I_L.Persistent_GETS::total         3179                      
system.ruby.L1Cache_Controller.I_L.Own_Lock_or_Unlock |           0      0.00%      0.00% |           0      0.00%      0.00% |           0      0.00%      0.00% |           0      0.00%      0.00% |           4    100.00%    100.00%
system.ruby.L1Cache_Controller.I_L.Own_Lock_or_Unlock::total            4                      
system.ruby.L1Cache_Controller.S_L.Own_Lock_or_Unlock |           0      0.00%      0.00% |           0      0.00%      0.00% |           0      0.00%      0.00% |           0      0.00%      0.00% |           1    100.00%    100.00%
system.ruby.L1Cache_Controller.S_L.Own_Lock_or_Unlock::total            1                      
system.ruby.L2Cache_Controller.L1_GETS          13935      0.00%      0.00%
system.ruby.L2Cache_Controller.L1_GETX           2426      0.00%      0.00%
system.ruby.L2Cache_Controller.L1_INV             220      0.00%      0.00%
system.ruby.L2Cache_Controller.Writeback_Shared_Data            1      0.00%      0.00%
system.ruby.L2Cache_Controller.Writeback_All_Tokens         9852      0.00%      0.00%
system.ruby.L2Cache_Controller.Persistent_GETX          362      0.00%      0.00%
system.ruby.L2Cache_Controller.Persistent_GETS          796      0.00%      0.00%
system.ruby.L2Cache_Controller.Own_Lock_or_Unlock         1158      0.00%      0.00%
system.ruby.L2Cache_Controller.NP.L1_GETS        12346      0.00%      0.00%
system.ruby.L2Cache_Controller.NP.L1_GETX         2079      0.00%      0.00%
system.ruby.L2Cache_Controller.NP.L1_INV          208      0.00%      0.00%
system.ruby.L2Cache_Controller.NP.Writeback_All_Tokens         8910      0.00%      0.00%
system.ruby.L2Cache_Controller.NP.Own_Lock_or_Unlock         1153      0.00%      0.00%
system.ruby.L2Cache_Controller.I.L1_GETS           12      0.00%      0.00%
system.ruby.L2Cache_Controller.I.L1_GETX            4      0.00%      0.00%
system.ruby.L2Cache_Controller.I.L1_INV             8      0.00%      0.00%
system.ruby.L2Cache_Controller.I.Writeback_All_Tokens          163      0.00%      0.00%
system.ruby.L2Cache_Controller.I.Persistent_GETS            5      0.00%      0.00%
system.ruby.L2Cache_Controller.O.L1_GETS            1      0.00%      0.00%
system.ruby.L2Cache_Controller.O.L1_GETX          172      0.00%      0.00%
system.ruby.L2Cache_Controller.O.Writeback_Shared_Data            1      0.00%      0.00%
system.ruby.L2Cache_Controller.O.Writeback_All_Tokens          779      0.00%      0.00%
system.ruby.L2Cache_Controller.M.L1_GETS         1576      0.00%      0.00%
system.ruby.L2Cache_Controller.M.L1_GETX          171      0.00%      0.00%
system.ruby.L2Cache_Controller.I_L.L1_INV            4      0.00%      0.00%
system.ruby.L2Cache_Controller.I_L.Persistent_GETX          362      0.00%      0.00%
system.ruby.L2Cache_Controller.I_L.Persistent_GETS          791      0.00%      0.00%
system.ruby.L2Cache_Controller.I_L.Own_Lock_or_Unlock            5      0.00%      0.00%

---------- End Simulation Statistics   ----------
