
---------- Begin Simulation Statistics ----------
sim_seconds                                  0.022523                       # Number of seconds simulated
sim_ticks                                 22522933500                       # Number of ticks simulated
final_tick                                22522933500                       # Number of ticks from beginning of simulation (restored from checkpoints and never reset)
sim_freq                                 1000000000000                       # Frequency of simulated ticks
host_inst_rate                                  50452                       # Simulator instruction rate (inst/s)
host_op_rate                                   100268                       # Simulator op (including micro ops) rate (op/s)
host_tick_rate                               21230881                       # Simulator tick rate (ticks/s)
host_mem_usage                                 850108                       # Number of bytes of host memory used
host_seconds                                  1060.86                       # Real time elapsed on the host
sim_insts                                    53522170                       # Number of instructions simulated
sim_ops                                     106370146                       # Number of ops (including micro ops) simulated
system.voltage_domain.voltage                       1                       # Voltage in Volts
system.clk_domain.clock                          1000                       # Clock period in ticks
system.mem_ctrls.pwrStateResidencyTicks::UNDEFINED  22522933500                       # Cumulative time (in ticks) in various power states
system.mem_ctrls.bytes_read::ruby.dir_cntrl0      1564544                       # Number of bytes read from this memory
system.mem_ctrls.bytes_read::total            1564544                       # Number of bytes read from this memory
system.mem_ctrls.bytes_written::ruby.dir_cntrl0          320                       # Number of bytes written to this memory
system.mem_ctrls.bytes_written::total             320                       # Number of bytes written to this memory
system.mem_ctrls.num_reads::ruby.dir_cntrl0        24446                       # Number of read requests responded to by this memory
system.mem_ctrls.num_reads::total               24446                       # Number of read requests responded to by this memory
system.mem_ctrls.num_writes::ruby.dir_cntrl0            5                       # Number of write requests responded to by this memory
system.mem_ctrls.num_writes::total                  5                       # Number of write requests responded to by this memory
system.mem_ctrls.bw_read::ruby.dir_cntrl0     69464486                       # Total read bandwidth from this memory (bytes/s)
system.mem_ctrls.bw_read::total              69464486                       # Total read bandwidth from this memory (bytes/s)
system.mem_ctrls.bw_write::ruby.dir_cntrl0        14208                       # Write bandwidth from this memory (bytes/s)
system.mem_ctrls.bw_write::total                14208                       # Write bandwidth from this memory (bytes/s)
system.mem_ctrls.bw_total::ruby.dir_cntrl0     69478694                       # Total bandwidth to/from this memory (bytes/s)
system.mem_ctrls.bw_total::total             69478694                       # Total bandwidth to/from this memory (bytes/s)
system.mem_ctrls.readReqs                       24446                       # Number of read requests accepted
system.mem_ctrls.avgNetLat                       0.00                       # Average network latency to DRAM controller
system.mem_ctrls.writeReqs                          5                       # Number of write requests accepted
system.mem_ctrls.readBursts                     24446                       # Number of DRAM read bursts, including those serviced by the write queue
system.mem_ctrls.writeBursts                        5                       # Number of DRAM write bursts, including those merged in the write queue
system.mem_ctrls.bytesReadDRAM                1564544                       # Total number of bytes read from DRAM
system.mem_ctrls.bytesReadWrQ                       0                       # Total number of bytes read from write queue
system.mem_ctrls.bytesWritten                       0                       # Total number of bytes written to DRAM
system.mem_ctrls.bytesReadSys                 1564544                       # Total read bytes from the system interface side
system.mem_ctrls.bytesWrittenSys                  320                       # Total written bytes from the system interface side
system.mem_ctrls.servicedByWrQ                      0                       # Number of DRAM read bursts serviced by the write queue
system.mem_ctrls.mergedWrBursts                     0                       # Number of DRAM write bursts merged with an existing one
system.mem_ctrls.neitherReadNorWriteReqs            0                       # Number of requests that are neither read nor write
system.mem_ctrls.perBankRdBursts::0              1607                       # Per bank write bursts
system.mem_ctrls.perBankRdBursts::1              1533                       # Per bank write bursts
system.mem_ctrls.perBankRdBursts::2              1498                       # Per bank write bursts
system.mem_ctrls.perBankRdBursts::3              1435                       # Per bank write bursts
system.mem_ctrls.perBankRdBursts::4              1397                       # Per bank write bursts
system.mem_ctrls.perBankRdBursts::5              1391                       # Per bank write bursts
system.mem_ctrls.perBankRdBursts::6              1355                       # Per bank write bursts
system.mem_ctrls.perBankRdBursts::7              1466                       # Per bank write bursts
system.mem_ctrls.perBankRdBursts::8              1494                       # Per bank write bursts
system.mem_ctrls.perBankRdBursts::9              1590                       # Per bank write bursts
system.mem_ctrls.perBankRdBursts::10             1607                       # Per bank write bursts
system.mem_ctrls.perBankRdBursts::11             1499                       # Per bank write bursts
system.mem_ctrls.perBankRdBursts::12             1702                       # Per bank write bursts
system.mem_ctrls.perBankRdBursts::13             1662                       # Per bank write bursts
system.mem_ctrls.perBankRdBursts::14             1605                       # Per bank write bursts
system.mem_ctrls.perBankRdBursts::15             1605                       # Per bank write bursts
system.mem_ctrls.perBankWrBursts::0                 0                       # Per bank write bursts
system.mem_ctrls.perBankWrBursts::1                 0                       # Per bank write bursts
system.mem_ctrls.perBankWrBursts::2                 0                       # Per bank write bursts
system.mem_ctrls.perBankWrBursts::3                 0                       # Per bank write bursts
system.mem_ctrls.perBankWrBursts::4                 0                       # Per bank write bursts
system.mem_ctrls.perBankWrBursts::5                 0                       # Per bank write bursts
system.mem_ctrls.perBankWrBursts::6                 0                       # Per bank write bursts
system.mem_ctrls.perBankWrBursts::7                 0                       # Per bank write bursts
system.mem_ctrls.perBankWrBursts::8                 0                       # Per bank write bursts
system.mem_ctrls.perBankWrBursts::9                 0                       # Per bank write bursts
system.mem_ctrls.perBankWrBursts::10                0                       # Per bank write bursts
system.mem_ctrls.perBankWrBursts::11                0                       # Per bank write bursts
system.mem_ctrls.perBankWrBursts::12                0                       # Per bank write bursts
system.mem_ctrls.perBankWrBursts::13                0                       # Per bank write bursts
system.mem_ctrls.perBankWrBursts::14                0                       # Per bank write bursts
system.mem_ctrls.perBankWrBursts::15                0                       # Per bank write bursts
system.mem_ctrls.numRdRetry                         0                       # Number of times read queue was full causing retry
system.mem_ctrls.numWrRetry                         0                       # Number of times write queue was full causing retry
system.mem_ctrls.totGap                   22522868000                       # Total gap between requests
system.mem_ctrls.readPktSize::0                     0                       # Read request sizes (log2)
system.mem_ctrls.readPktSize::1                     0                       # Read request sizes (log2)
system.mem_ctrls.readPktSize::2                     0                       # Read request sizes (log2)
system.mem_ctrls.readPktSize::3                     0                       # Read request sizes (log2)
system.mem_ctrls.readPktSize::4                     0                       # Read request sizes (log2)
system.mem_ctrls.readPktSize::5                     0                       # Read request sizes (log2)
system.mem_ctrls.readPktSize::6                 24446                       # Read request sizes (log2)
system.mem_ctrls.writePktSize::0                    0                       # Write request sizes (log2)
system.mem_ctrls.writePktSize::1                    0                       # Write request sizes (log2)
system.mem_ctrls.writePktSize::2                    0                       # Write request sizes (log2)
system.mem_ctrls.writePktSize::3                    0                       # Write request sizes (log2)
system.mem_ctrls.writePktSize::4                    0                       # Write request sizes (log2)
system.mem_ctrls.writePktSize::5                    0                       # Write request sizes (log2)
system.mem_ctrls.writePktSize::6                    5                       # Write request sizes (log2)
system.mem_ctrls.rdQLenPdf::0                   12263                       # What read queue length does an incoming req see
system.mem_ctrls.rdQLenPdf::1                    2721                       # What read queue length does an incoming req see
system.mem_ctrls.rdQLenPdf::2                    2417                       # What read queue length does an incoming req see
system.mem_ctrls.rdQLenPdf::3                    1813                       # What read queue length does an incoming req see
system.mem_ctrls.rdQLenPdf::4                    1235                       # What read queue length does an incoming req see
system.mem_ctrls.rdQLenPdf::5                    1013                       # What read queue length does an incoming req see
system.mem_ctrls.rdQLenPdf::6                     848                       # What read queue length does an incoming req see
system.mem_ctrls.rdQLenPdf::7                     660                       # What read queue length does an incoming req see
system.mem_ctrls.rdQLenPdf::8                     480                       # What read queue length does an incoming req see
system.mem_ctrls.rdQLenPdf::9                     367                       # What read queue length does an incoming req see
system.mem_ctrls.rdQLenPdf::10                    279                       # What read queue length does an incoming req see
system.mem_ctrls.rdQLenPdf::11                    170                       # What read queue length does an incoming req see
system.mem_ctrls.rdQLenPdf::12                     98                       # What read queue length does an incoming req see
system.mem_ctrls.rdQLenPdf::13                     48                       # What read queue length does an incoming req see
system.mem_ctrls.rdQLenPdf::14                     18                       # What read queue length does an incoming req see
system.mem_ctrls.rdQLenPdf::15                      9                       # What read queue length does an incoming req see
system.mem_ctrls.rdQLenPdf::16                      3                       # What read queue length does an incoming req see
system.mem_ctrls.rdQLenPdf::17                      1                       # What read queue length does an incoming req see
system.mem_ctrls.rdQLenPdf::18                      1                       # What read queue length does an incoming req see
system.mem_ctrls.rdQLenPdf::19                      2                       # What read queue length does an incoming req see
system.mem_ctrls.rdQLenPdf::20                      0                       # What read queue length does an incoming req see
system.mem_ctrls.rdQLenPdf::21                      0                       # What read queue length does an incoming req see
system.mem_ctrls.rdQLenPdf::22                      0                       # What read queue length does an incoming req see
system.mem_ctrls.rdQLenPdf::23                      0                       # What read queue length does an incoming req see
system.mem_ctrls.rdQLenPdf::24                      0                       # What read queue length does an incoming req see
system.mem_ctrls.rdQLenPdf::25                      0                       # What read queue length does an incoming req see
system.mem_ctrls.rdQLenPdf::26                      0                       # What read queue length does an incoming req see
system.mem_ctrls.rdQLenPdf::27                      0                       # What read queue length does an incoming req see
system.mem_ctrls.rdQLenPdf::28                      0                       # What read queue length does an incoming req see
system.mem_ctrls.rdQLenPdf::29                      0                       # What read queue length does an incoming req see
system.mem_ctrls.rdQLenPdf::30                      0                       # What read queue length does an incoming req see
system.mem_ctrls.rdQLenPdf::31                      0                       # What read queue length does an incoming req see
system.mem_ctrls.wrQLenPdf::0                       1                       # What write queue length does an incoming req see
system.mem_ctrls.wrQLenPdf::1                       1                       # What write queue length does an incoming req see
system.mem_ctrls.wrQLenPdf::2                       1                       # What write queue length does an incoming req see
system.mem_ctrls.wrQLenPdf::3                       1                       # What write queue length does an incoming req see
system.mem_ctrls.wrQLenPdf::4                       1                       # What write queue length does an incoming req see
system.mem_ctrls.wrQLenPdf::5                       0                       # What write queue length does an incoming req see
system.mem_ctrls.wrQLenPdf::6                       0                       # What write queue length does an incoming req see
system.mem_ctrls.wrQLenPdf::7                       0                       # What write queue length does an incoming req see
system.mem_ctrls.wrQLenPdf::8                       0                       # What write queue length does an incoming req see
system.mem_ctrls.wrQLenPdf::9                       0                       # What write queue length does an incoming req see
system.mem_ctrls.wrQLenPdf::10                      0                       # What write queue length does an incoming req see
system.mem_ctrls.wrQLenPdf::11                      0                       # What write queue length does an incoming req see
system.mem_ctrls.wrQLenPdf::12                      0                       # What write queue length does an incoming req see
system.mem_ctrls.wrQLenPdf::13                      0                       # What write queue length does an incoming req see
system.mem_ctrls.wrQLenPdf::14                      0                       # What write queue length does an incoming req see
system.mem_ctrls.wrQLenPdf::15                      0                       # What write queue length does an incoming req see
system.mem_ctrls.wrQLenPdf::16                      0                       # What write queue length does an incoming req see
system.mem_ctrls.wrQLenPdf::17                      0                       # What write queue length does an incoming req see
system.mem_ctrls.wrQLenPdf::18                      0                       # What write queue length does an incoming req see
system.mem_ctrls.wrQLenPdf::19                      0                       # What write queue length does an incoming req see
system.mem_ctrls.wrQLenPdf::20                      0                       # What write queue length does an incoming req see
system.mem_ctrls.wrQLenPdf::21                      0                       # What write queue length does an incoming req see
system.mem_ctrls.wrQLenPdf::22                      0                       # What write queue length does an incoming req see
system.mem_ctrls.wrQLenPdf::23                      0                       # What write queue length does an incoming req see
system.mem_ctrls.wrQLenPdf::24                      0                       # What write queue length does an incoming req see
system.mem_ctrls.wrQLenPdf::25                      0                       # What write queue length does an incoming req see
system.mem_ctrls.wrQLenPdf::26                      0                       # What write queue length does an incoming req see
system.mem_ctrls.wrQLenPdf::27                      0                       # What write queue length does an incoming req see
system.mem_ctrls.wrQLenPdf::28                      0                       # What write queue length does an incoming req see
system.mem_ctrls.wrQLenPdf::29                      0                       # What write queue length does an incoming req see
system.mem_ctrls.wrQLenPdf::30                      0                       # What write queue length does an incoming req see
system.mem_ctrls.wrQLenPdf::31                      0                       # What write queue length does an incoming req see
system.mem_ctrls.wrQLenPdf::32                      0                       # What write queue length does an incoming req see
system.mem_ctrls.wrQLenPdf::33                      0                       # What write queue length does an incoming req see
system.mem_ctrls.wrQLenPdf::34                      0                       # What write queue length does an incoming req see
system.mem_ctrls.wrQLenPdf::35                      0                       # What write queue length does an incoming req see
system.mem_ctrls.wrQLenPdf::36                      0                       # What write queue length does an incoming req see
system.mem_ctrls.wrQLenPdf::37                      0                       # What write queue length does an incoming req see
system.mem_ctrls.wrQLenPdf::38                      0                       # What write queue length does an incoming req see
system.mem_ctrls.wrQLenPdf::39                      0                       # What write queue length does an incoming req see
system.mem_ctrls.wrQLenPdf::40                      0                       # What write queue length does an incoming req see
system.mem_ctrls.wrQLenPdf::41                      0                       # What write queue length does an incoming req see
system.mem_ctrls.wrQLenPdf::42                      0                       # What write queue length does an incoming req see
system.mem_ctrls.wrQLenPdf::43                      0                       # What write queue length does an incoming req see
system.mem_ctrls.wrQLenPdf::44                      0                       # What write queue length does an incoming req see
system.mem_ctrls.wrQLenPdf::45                      0                       # What write queue length does an incoming req see
system.mem_ctrls.wrQLenPdf::46                      0                       # What write queue length does an incoming req see
system.mem_ctrls.wrQLenPdf::47                      0                       # What write queue length does an incoming req see
system.mem_ctrls.wrQLenPdf::48                      0                       # What write queue length does an incoming req see
system.mem_ctrls.wrQLenPdf::49                      0                       # What write queue length does an incoming req see
system.mem_ctrls.wrQLenPdf::50                      0                       # What write queue length does an incoming req see
system.mem_ctrls.wrQLenPdf::51                      0                       # What write queue length does an incoming req see
system.mem_ctrls.wrQLenPdf::52                      0                       # What write queue length does an incoming req see
system.mem_ctrls.wrQLenPdf::53                      0                       # What write queue length does an incoming req see
system.mem_ctrls.wrQLenPdf::54                      0                       # What write queue length does an incoming req see
system.mem_ctrls.wrQLenPdf::55                      0                       # What write queue length does an incoming req see
system.mem_ctrls.wrQLenPdf::56                      0                       # What write queue length does an incoming req see
system.mem_ctrls.wrQLenPdf::57                      0                       # What write queue length does an incoming req see
system.mem_ctrls.wrQLenPdf::58                      0                       # What write queue length does an incoming req see
system.mem_ctrls.wrQLenPdf::59                      0                       # What write queue length does an incoming req see
system.mem_ctrls.wrQLenPdf::60                      0                       # What write queue length does an incoming req see
system.mem_ctrls.wrQLenPdf::61                      0                       # What write queue length does an incoming req see
system.mem_ctrls.wrQLenPdf::62                      0                       # What write queue length does an incoming req see
system.mem_ctrls.wrQLenPdf::63                      0                       # What write queue length does an incoming req see
system.mem_ctrls.bytesPerActivate::samples         5344                       # Bytes accessed per row activation
system.mem_ctrls.bytesPerActivate::mean    292.383234                       # Bytes accessed per row activation
system.mem_ctrls.bytesPerActivate::gmean   157.079136                       # Bytes accessed per row activation
system.mem_ctrls.bytesPerActivate::stdev   345.991350                       # Bytes accessed per row activation
system.mem_ctrls.bytesPerActivate::0-127         2610     48.84%     48.84% # Bytes accessed per row activation
system.mem_ctrls.bytesPerActivate::128-255         1047     19.59%     68.43% # Bytes accessed per row activation
system.mem_ctrls.bytesPerActivate::256-383          293      5.48%     73.91% # Bytes accessed per row activation
system.mem_ctrls.bytesPerActivate::384-511          168      3.14%     77.06% # Bytes accessed per row activation
system.mem_ctrls.bytesPerActivate::512-639          153      2.86%     79.92% # Bytes accessed per row activation
system.mem_ctrls.bytesPerActivate::640-767          225      4.21%     84.13% # Bytes accessed per row activation
system.mem_ctrls.bytesPerActivate::768-895           43      0.80%     84.94% # Bytes accessed per row activation
system.mem_ctrls.bytesPerActivate::896-1023           38      0.71%     85.65% # Bytes accessed per row activation
system.mem_ctrls.bytesPerActivate::1024-1151          767     14.35%    100.00% # Bytes accessed per row activation
system.mem_ctrls.bytesPerActivate::total         5344                       # Bytes accessed per row activation
system.mem_ctrls.totQLat                    575562794                       # Total ticks spent queuing
system.mem_ctrls.totMemAccLat              1033925294                       # Total ticks spent from burst creation until serviced by the DRAM
system.mem_ctrls.totBusLat                  122230000                       # Total ticks spent in databus transfers
system.mem_ctrls.avgQLat                     23544.25                       # Average queueing delay per DRAM burst
system.mem_ctrls.avgBusLat                    5000.00                       # Average bus latency per DRAM burst
system.mem_ctrls.avgMemAccLat                42294.25                       # Average memory access latency per DRAM burst
system.mem_ctrls.avgRdBW                        69.46                       # Average DRAM read bandwidth in MiByte/s
system.mem_ctrls.avgWrBW                         0.00                       # Average achieved write bandwidth in MiByte/s
system.mem_ctrls.avgRdBWSys                     69.46                       # Average system read bandwidth in MiByte/s
system.mem_ctrls.avgWrBWSys                      0.01                       # Average system write bandwidth in MiByte/s
system.mem_ctrls.peakBW                      12800.00                       # Theoretical peak bandwidth in MiByte/s
system.mem_ctrls.busUtil                         0.54                       # Data bus utilization in percentage
system.mem_ctrls.busUtilRead                     0.54                       # Data bus utilization in percentage for reads
system.mem_ctrls.busUtilWrite                    0.00                       # Data bus utilization in percentage for writes
system.mem_ctrls.avgRdQLen                       1.03                       # Average read queue length when enqueuing
system.mem_ctrls.avgWrQLen                       1.67                       # Average write queue length when enqueuing
system.mem_ctrls.readRowHits                    19093                       # Number of row buffer hits during reads
system.mem_ctrls.writeRowHits                       0                       # Number of row buffer hits during writes
system.mem_ctrls.readRowHitRate                 78.10                       # Row buffer hit rate for reads
system.mem_ctrls.writeRowHitRate                 0.00                       # Row buffer hit rate for writes
system.mem_ctrls.avgGap                     921143.02                       # Average gap between requests
system.mem_ctrls.pageHitRate                    78.09                       # Row buffer hit rate, read and write combined
system.mem_ctrls_0.actEnergy                 17478720                       # Energy for activate commands per rank (pJ)
system.mem_ctrls_0.preEnergy                  9274980                       # Energy for precharge commands per rank (pJ)
system.mem_ctrls_0.readEnergy                83409480                       # Energy for read commands per rank (pJ)
system.mem_ctrls_0.writeEnergy                      0                       # Energy for write commands per rank (pJ)
system.mem_ctrls_0.refreshEnergy         78059280.000000                       # Energy for refresh commands per rank (pJ)
system.mem_ctrls_0.actBackEnergy            143117880                       # Energy for active background per rank (pJ)
system.mem_ctrls_0.preBackEnergy              3072480                       # Energy for precharge background per rank (pJ)
system.mem_ctrls_0.actPowerDownEnergy       246554070                       # Energy for active power-down per rank (pJ)
system.mem_ctrls_0.prePowerDownEnergy        27443040                       # Energy for precharge power-down per rank (pJ)
system.mem_ctrls_0.selfRefreshEnergy       5185759320                       # Energy for self refresh per rank (pJ)
system.mem_ctrls_0.totalEnergy             5794169250                       # Total energy per rank (pJ)
system.mem_ctrls_0.averagePower            257.256418                       # Core power per rank (mW)
system.mem_ctrls_0.totalIdleTime          22200850529                       # Total Idle time Per DRAM Rank
system.mem_ctrls_0.memoryStateTime::IDLE      3279750                       # Time in different power states
system.mem_ctrls_0.memoryStateTime::REF      33068000                       # Time in different power states
system.mem_ctrls_0.memoryStateTime::SREF  21588918750                       # Time in different power states
system.mem_ctrls_0.memoryStateTime::PRE_PDN     71461750                       # Time in different power states
system.mem_ctrls_0.memoryStateTime::ACT     285585471                       # Time in different power states
system.mem_ctrls_0.memoryStateTime::ACT_PDN    540619779                       # Time in different power states
system.mem_ctrls_1.actEnergy                 20741700                       # Energy for activate commands per rank (pJ)
system.mem_ctrls_1.preEnergy                 11005500                       # Energy for precharge commands per rank (pJ)
system.mem_ctrls_1.readEnergy                91134960                       # Energy for read commands per rank (pJ)
system.mem_ctrls_1.writeEnergy                      0                       # Energy for write commands per rank (pJ)
system.mem_ctrls_1.refreshEnergy         79288560.000000                       # Energy for refresh commands per rank (pJ)
system.mem_ctrls_1.actBackEnergy            150087840                       # Energy for active background per rank (pJ)
system.mem_ctrls_1.preBackEnergy              3011040                       # Energy for precharge background per rank (pJ)
system.mem_ctrls_1.actPowerDownEnergy       260457510                       # Energy for active power-down per rank (pJ)
system.mem_ctrls_1.prePowerDownEnergy        21853440                       # Energy for precharge power-down per rank (pJ)
system.mem_ctrls_1.selfRefreshEnergy       5177200740                       # Energy for self refresh per rank (pJ)
system.mem_ctrls_1.totalEnergy             5814781290                       # Total energy per rank (pJ)
system.mem_ctrls_1.averagePower            258.171575                       # Core power per rank (mW)
system.mem_ctrls_1.totalIdleTime          22185947531                       # Total Idle time Per DRAM Rank
system.mem_ctrls_1.memoryStateTime::IDLE      2845500                       # Time in different power states
system.mem_ctrls_1.memoryStateTime::REF      33576000                       # Time in different power states
system.mem_ctrls_1.memoryStateTime::SREF  21557864750                       # Time in different power states
system.mem_ctrls_1.memoryStateTime::PRE_PDN     56907750                       # Time in different power states
system.mem_ctrls_1.memoryStateTime::ACT     300534219                       # Time in different power states
system.mem_ctrls_1.memoryStateTime::ACT_PDN    571205281                       # Time in different power states
system.pwrStateResidencyTicks::UNDEFINED  22522933500                       # Cumulative time (in ticks) in various power states
system.cpu0.branchPred.lookups                3444528                       # Number of BP lookups
system.cpu0.branchPred.condPredicted          3444528                       # Number of conditional branches predicted
system.cpu0.branchPred.condIncorrect             8136                       # Number of conditional branches incorrect
system.cpu0.branchPred.BTBLookups             3293699                       # Number of BTB lookups
system.cpu0.branchPred.BTBHits                      0                       # Number of BTB hits
system.cpu0.branchPred.BTBCorrect                   0                       # Number of correct BTB predictions (this stat may not work properly.
system.cpu0.branchPred.BTBHitPct             0.000000                       # BTB Hit Percentage
system.cpu0.branchPred.usedRAS                 131398                       # Number of times the RAS was used to get a target.
system.cpu0.branchPred.RASInCorrect               438                       # Number of incorrect RAS predictions.
system.cpu0.branchPred.indirectLookups        3293699                       # Number of indirect predictor lookups.
system.cpu0.branchPred.indirectHits           1768677                       # Number of indirect target hits.
system.cpu0.branchPred.indirectMisses         1525022                       # Number of indirect misses.
system.cpu0.branchPredindirectMispredicted         4223                       # Number of mispredicted indirect branches.
system.cpu_voltage_domain.voltage                   1                       # Voltage in Volts
system.cpu0.clk_domain.clock                      500                       # Clock period in ticks
system.cpu0.dtb.walker.pwrStateResidencyTicks::UNDEFINED  22522933500                       # Cumulative time (in ticks) in various power states
system.cpu0.apic_clk_domain.clock                8000                       # Clock period in ticks
system.cpu0.interrupts.pwrStateResidencyTicks::UNDEFINED  22522933500                       # Cumulative time (in ticks) in various power states
system.cpu0.itb.walker.pwrStateResidencyTicks::UNDEFINED  22522933500                       # Cumulative time (in ticks) in various power states
system.cpu0.workload.num_syscalls              129164                       # Number of system calls
system.cpu0.pwrStateResidencyTicks::ON    22522933500                       # Cumulative time (in ticks) in various power states
system.cpu0.numCycles                        18887030                       # number of cpu cycles simulated
system.cpu0.numWorkItemsStarted                     0                       # number of work items this cpu started
system.cpu0.numWorkItemsCompleted                   0                       # number of work items this cpu completed
system.cpu0.fetch.icacheStallCycles            981928                       # Number of cycles fetch is stalled on an Icache miss
system.cpu0.fetch.Insts                      10108824                       # Number of instructions fetch has processed
system.cpu0.fetch.Branches                    3444528                       # Number of branches that fetch encountered
system.cpu0.fetch.predictedBranches           1900075                       # Number of branches that fetch has predicted taken
system.cpu0.fetch.Cycles                     17799725                       # Number of cycles fetch has run and was not squashing or blocked
system.cpu0.fetch.SquashCycles                  16417                       # Number of cycles fetch has spent squashing
system.cpu0.fetch.MiscStallCycles               11822                       # Number of cycles fetch has spent waiting on interrupts, or bad addresses, or out of MSHRs
system.cpu0.fetch.NoActiveThreadStallCycles           10                       # Number of stall cycles due to no active thread to fetch from
system.cpu0.fetch.PendingTrapStallCycles          364                       # Number of stall cycles due to pending traps
system.cpu0.fetch.PendingQuiesceStallCycles           13                       # Number of stall cycles due to pending quiesce instructions
system.cpu0.fetch.IcacheWaitRetryStallCycles         6943                       # Number of stall cycles due to full MSHR
system.cpu0.fetch.CacheLines                   954318                       # Number of cache lines fetched
system.cpu0.fetch.IcacheSquashes                 2426                       # Number of outstanding Icache misses that were squashed
system.cpu0.fetch.rateDist::samples          18809013                       # Number of instructions fetched each cycle (Total)
system.cpu0.fetch.rateDist::mean             1.071224                       # Number of instructions fetched each cycle (Total)
system.cpu0.fetch.rateDist::stdev            2.435596                       # Number of instructions fetched each cycle (Total)
system.cpu0.fetch.rateDist::underflows              0      0.00%      0.00% # Number of instructions fetched each cycle (Total)
system.cpu0.fetch.rateDist::0                15266790     81.17%     81.17% # Number of instructions fetched each cycle (Total)
system.cpu0.fetch.rateDist::1                  202701      1.08%     82.25% # Number of instructions fetched each cycle (Total)
system.cpu0.fetch.rateDist::2                   68171      0.36%     82.61% # Number of instructions fetched each cycle (Total)
system.cpu0.fetch.rateDist::3                  202803      1.08%     83.69% # Number of instructions fetched each cycle (Total)
system.cpu0.fetch.rateDist::4                 1164677      6.19%     89.88% # Number of instructions fetched each cycle (Total)
system.cpu0.fetch.rateDist::5                   72311      0.38%     90.26% # Number of instructions fetched each cycle (Total)
system.cpu0.fetch.rateDist::6                  135536      0.72%     90.98% # Number of instructions fetched each cycle (Total)
system.cpu0.fetch.rateDist::7                  200456      1.07%     92.05% # Number of instructions fetched each cycle (Total)
system.cpu0.fetch.rateDist::8                 1495568      7.95%    100.00% # Number of instructions fetched each cycle (Total)
system.cpu0.fetch.rateDist::overflows               0      0.00%    100.00% # Number of instructions fetched each cycle (Total)
system.cpu0.fetch.rateDist::min_value               0                       # Number of instructions fetched each cycle (Total)
system.cpu0.fetch.rateDist::max_value               8                       # Number of instructions fetched each cycle (Total)
system.cpu0.fetch.rateDist::total            18809013                       # Number of instructions fetched each cycle (Total)
system.cpu0.fetch.branchRate                 0.182375                       # Number of branch fetches per cycle
system.cpu0.fetch.rate                       0.535226                       # Number of inst fetches per cycle
system.cpu0.decode.IdleCycles                  789828                       # Number of cycles decode is idle
system.cpu0.decode.BlockedCycles             15328410                       # Number of cycles decode is blocked
system.cpu0.decode.RunCycles                   737703                       # Number of cycles decode is running
system.cpu0.decode.UnblockCycles              1944854                       # Number of cycles decode is unblocking
system.cpu0.decode.SquashCycles                  8208                       # Number of cycles decode is squashing
system.cpu0.decode.DecodedInsts              20072163                       # Number of instructions handled by decode
system.cpu0.rename.SquashCycles                  8208                       # Number of cycles rename is squashing
system.cpu0.rename.IdleCycles                 1124537                       # Number of cycles rename is idle
system.cpu0.rename.BlockCycles                3739198                       # Number of cycles rename is blocking
system.cpu0.rename.serializeStallCycles       8807785                       # count of cycles rename stalled for serializing inst
system.cpu0.rename.RunCycles                  1399897                       # Number of cycles rename is running
system.cpu0.rename.UnblockCycles              3729378                       # Number of cycles rename is unblocking
system.cpu0.rename.RenamedInsts              20033208                       # Number of instructions processed by rename
system.cpu0.rename.ROBFullEvents              2219618                       # Number of times rename has blocked due to ROB full
system.cpu0.rename.IQFullEvents                 14148                       # Number of times rename has blocked due to IQ full
system.cpu0.rename.LQFullEvents                879043                       # Number of times rename has blocked due to LQ full
system.cpu0.rename.SQFullEvents                 48994                       # Number of times rename has blocked due to SQ full
system.cpu0.rename.RenamedOperands           22404257                       # Number of destination operands rename has renamed
system.cpu0.rename.RenameLookups             44062456                       # Number of register rename lookups that rename has made
system.cpu0.rename.int_rename_lookups        21607703                       # Number of integer rename lookups
system.cpu0.rename.fp_rename_lookups            15919                       # Number of floating rename lookups
system.cpu0.rename.CommittedMaps             21923463                       # Number of HB maps that are committed
system.cpu0.rename.UndoneMaps                  480794                       # Number of HB maps that are undone due to squashing
system.cpu0.rename.serializingInsts            129196                       # count of serializing insts renamed
system.cpu0.rename.tempSerializingInsts        129198                       # count of temporary serializing insts renamed
system.cpu0.rename.skidInsts                 12421944                       # count of insts added to the skid buffer
system.cpu0.memDep0.insertedLoads             3055808                       # Number of loads inserted to the mem dependence unit.
system.cpu0.memDep0.insertedStores             152659                       # Number of stores inserted to the mem dependence unit.
system.cpu0.memDep0.conflictingLoads             3043                       # Number of conflicting loads.
system.cpu0.memDep0.conflictingStores             281                       # Number of conflicting stores.
system.cpu0.iq.iqInstsAdded                  19834400                       # Number of instructions added to the IQ (excludes non-spec)
system.cpu0.iq.iqNonSpecInstsAdded             129229                       # Number of non-speculative instructions added to the IQ
system.cpu0.iq.iqInstsIssued                 19968929                       # Number of instructions issued
system.cpu0.iq.iqSquashedInstsIssued             6330                       # Number of squashed instructions issued
system.cpu0.iq.iqSquashedInstsExamined         318750                       # Number of squashed instructions iterated over during squash; mainly for profiling
system.cpu0.iq.iqSquashedOperandsExamined       480010                       # Number of squashed operands that are examined and possibly removed from graph
system.cpu0.iq.iqSquashedNonSpecRemoved            65                       # Number of squashed non-spec instructions that were removed
system.cpu0.iq.issued_per_cycle::samples     18809013                       # Number of insts issued each cycle
system.cpu0.iq.issued_per_cycle::mean        1.061668                       # Number of insts issued each cycle
system.cpu0.iq.issued_per_cycle::stdev       1.573952                       # Number of insts issued each cycle
system.cpu0.iq.issued_per_cycle::underflows            0      0.00%      0.00% # Number of insts issued each cycle
system.cpu0.iq.issued_per_cycle::0           10588417     56.29%     56.29% # Number of insts issued each cycle
system.cpu0.iq.issued_per_cycle::1            2901449     15.43%     71.72% # Number of insts issued each cycle
system.cpu0.iq.issued_per_cycle::2            1909837     10.15%     81.87% # Number of insts issued each cycle
system.cpu0.iq.issued_per_cycle::3            1869309      9.94%     91.81% # Number of insts issued each cycle
system.cpu0.iq.issued_per_cycle::4             793591      4.22%     96.03% # Number of insts issued each cycle
system.cpu0.iq.issued_per_cycle::5             373973      1.99%     98.02% # Number of insts issued each cycle
system.cpu0.iq.issued_per_cycle::6             153398      0.82%     98.84% # Number of insts issued each cycle
system.cpu0.iq.issued_per_cycle::7              77050      0.41%     99.25% # Number of insts issued each cycle
system.cpu0.iq.issued_per_cycle::8             141989      0.75%    100.00% # Number of insts issued each cycle
system.cpu0.iq.issued_per_cycle::overflows            0      0.00%    100.00% # Number of insts issued each cycle
system.cpu0.iq.issued_per_cycle::min_value            0                       # Number of insts issued each cycle
system.cpu0.iq.issued_per_cycle::max_value            8                       # Number of insts issued each cycle
system.cpu0.iq.issued_per_cycle::total       18809013                       # Number of insts issued each cycle
system.cpu0.iq.fu_full::No_OpClass                  0      0.00%      0.00% # attempts to use FU when none available
system.cpu0.iq.fu_full::IntAlu                  70264     80.43%     80.43% # attempts to use FU when none available
system.cpu0.iq.fu_full::IntMult                     0      0.00%     80.43% # attempts to use FU when none available
system.cpu0.iq.fu_full::IntDiv                      0      0.00%     80.43% # attempts to use FU when none available
system.cpu0.iq.fu_full::FloatAdd                   46      0.05%     80.48% # attempts to use FU when none available
system.cpu0.iq.fu_full::FloatCmp                    0      0.00%     80.48% # attempts to use FU when none available
system.cpu0.iq.fu_full::FloatCvt                    0      0.00%     80.48% # attempts to use FU when none available
system.cpu0.iq.fu_full::FloatMult                   0      0.00%     80.48% # attempts to use FU when none available
system.cpu0.iq.fu_full::FloatMultAcc                0      0.00%     80.48% # attempts to use FU when none available
system.cpu0.iq.fu_full::FloatDiv                    0      0.00%     80.48% # attempts to use FU when none available
system.cpu0.iq.fu_full::FloatMisc                   0      0.00%     80.48% # attempts to use FU when none available
system.cpu0.iq.fu_full::FloatSqrt                   0      0.00%     80.48% # attempts to use FU when none available
system.cpu0.iq.fu_full::SimdAdd                     0      0.00%     80.48% # attempts to use FU when none available
system.cpu0.iq.fu_full::SimdAddAcc                  0      0.00%     80.48% # attempts to use FU when none available
system.cpu0.iq.fu_full::SimdAlu                     0      0.00%     80.48% # attempts to use FU when none available
system.cpu0.iq.fu_full::SimdCmp                     0      0.00%     80.48% # attempts to use FU when none available
system.cpu0.iq.fu_full::SimdCvt                     0      0.00%     80.48% # attempts to use FU when none available
system.cpu0.iq.fu_full::SimdMisc                    0      0.00%     80.48% # attempts to use FU when none available
system.cpu0.iq.fu_full::SimdMult                    0      0.00%     80.48% # attempts to use FU when none available
system.cpu0.iq.fu_full::SimdMultAcc                 0      0.00%     80.48% # attempts to use FU when none available
system.cpu0.iq.fu_full::SimdShift                   0      0.00%     80.48% # attempts to use FU when none available
system.cpu0.iq.fu_full::SimdShiftAcc                0      0.00%     80.48% # attempts to use FU when none available
system.cpu0.iq.fu_full::SimdSqrt                    0      0.00%     80.48% # attempts to use FU when none available
system.cpu0.iq.fu_full::SimdFloatAdd                0      0.00%     80.48% # attempts to use FU when none available
system.cpu0.iq.fu_full::SimdFloatAlu                0      0.00%     80.48% # attempts to use FU when none available
system.cpu0.iq.fu_full::SimdFloatCmp                0      0.00%     80.48% # attempts to use FU when none available
system.cpu0.iq.fu_full::SimdFloatCvt                0      0.00%     80.48% # attempts to use FU when none available
system.cpu0.iq.fu_full::SimdFloatDiv                0      0.00%     80.48% # attempts to use FU when none available
system.cpu0.iq.fu_full::SimdFloatMisc               0      0.00%     80.48% # attempts to use FU when none available
system.cpu0.iq.fu_full::SimdFloatMult               0      0.00%     80.48% # attempts to use FU when none available
system.cpu0.iq.fu_full::SimdFloatMultAcc            0      0.00%     80.48% # attempts to use FU when none available
system.cpu0.iq.fu_full::SimdFloatSqrt               0      0.00%     80.48% # attempts to use FU when none available
system.cpu0.iq.fu_full::MemRead                 16145     18.48%     98.97% # attempts to use FU when none available
system.cpu0.iq.fu_full::MemWrite                  769      0.88%     99.85% # attempts to use FU when none available
system.cpu0.iq.fu_full::FloatMemRead               84      0.10%     99.94% # attempts to use FU when none available
system.cpu0.iq.fu_full::FloatMemWrite              50      0.06%    100.00% # attempts to use FU when none available
system.cpu0.iq.fu_full::IprAccess                   0      0.00%    100.00% # attempts to use FU when none available
system.cpu0.iq.fu_full::InstPrefetch                0      0.00%    100.00% # attempts to use FU when none available
system.cpu0.iq.FU_type_0::No_OpClass             3932      0.02%      0.02% # Type of FU issued
system.cpu0.iq.FU_type_0::IntAlu             16587854     83.07%     83.09% # Type of FU issued
system.cpu0.iq.FU_type_0::IntMult               66417      0.33%     83.42% # Type of FU issued
system.cpu0.iq.FU_type_0::IntDiv                 1215      0.01%     83.43% # Type of FU issued
system.cpu0.iq.FU_type_0::FloatAdd               4037      0.02%     83.45% # Type of FU issued
system.cpu0.iq.FU_type_0::FloatCmp                  0      0.00%     83.45% # Type of FU issued
system.cpu0.iq.FU_type_0::FloatCvt                  0      0.00%     83.45% # Type of FU issued
system.cpu0.iq.FU_type_0::FloatMult                 0      0.00%     83.45% # Type of FU issued
system.cpu0.iq.FU_type_0::FloatMultAcc              0      0.00%     83.45% # Type of FU issued
system.cpu0.iq.FU_type_0::FloatDiv                  0      0.00%     83.45% # Type of FU issued
system.cpu0.iq.FU_type_0::FloatMisc                 0      0.00%     83.45% # Type of FU issued
system.cpu0.iq.FU_type_0::FloatSqrt                 0      0.00%     83.45% # Type of FU issued
system.cpu0.iq.FU_type_0::SimdAdd                   0      0.00%     83.45% # Type of FU issued
system.cpu0.iq.FU_type_0::SimdAddAcc                0      0.00%     83.45% # Type of FU issued
system.cpu0.iq.FU_type_0::SimdAlu                   0      0.00%     83.45% # Type of FU issued
system.cpu0.iq.FU_type_0::SimdCmp                   0      0.00%     83.45% # Type of FU issued
system.cpu0.iq.FU_type_0::SimdCvt                   0      0.00%     83.45% # Type of FU issued
system.cpu0.iq.FU_type_0::SimdMisc                  0      0.00%     83.45% # Type of FU issued
system.cpu0.iq.FU_type_0::SimdMult                  0      0.00%     83.45% # Type of FU issued
system.cpu0.iq.FU_type_0::SimdMultAcc               0      0.00%     83.45% # Type of FU issued
system.cpu0.iq.FU_type_0::SimdShift                 0      0.00%     83.45% # Type of FU issued
system.cpu0.iq.FU_type_0::SimdShiftAcc              0      0.00%     83.45% # Type of FU issued
system.cpu0.iq.FU_type_0::SimdSqrt                  0      0.00%     83.45% # Type of FU issued
system.cpu0.iq.FU_type_0::SimdFloatAdd              0      0.00%     83.45% # Type of FU issued
system.cpu0.iq.FU_type_0::SimdFloatAlu              0      0.00%     83.45% # Type of FU issued
system.cpu0.iq.FU_type_0::SimdFloatCmp              0      0.00%     83.45% # Type of FU issued
system.cpu0.iq.FU_type_0::SimdFloatCvt              0      0.00%     83.45% # Type of FU issued
system.cpu0.iq.FU_type_0::SimdFloatDiv              0      0.00%     83.45% # Type of FU issued
system.cpu0.iq.FU_type_0::SimdFloatMisc             0      0.00%     83.45% # Type of FU issued
system.cpu0.iq.FU_type_0::SimdFloatMult             0      0.00%     83.45% # Type of FU issued
system.cpu0.iq.FU_type_0::SimdFloatMultAcc            0      0.00%     83.45% # Type of FU issued
system.cpu0.iq.FU_type_0::SimdFloatSqrt             0      0.00%     83.45% # Type of FU issued
system.cpu0.iq.FU_type_0::MemRead             3153771     15.79%     99.24% # Type of FU issued
system.cpu0.iq.FU_type_0::MemWrite             148016      0.74%     99.98% # Type of FU issued
system.cpu0.iq.FU_type_0::FloatMemRead           3253      0.02%    100.00% # Type of FU issued
system.cpu0.iq.FU_type_0::FloatMemWrite           434      0.00%    100.00% # Type of FU issued
system.cpu0.iq.FU_type_0::IprAccess                 0      0.00%    100.00% # Type of FU issued
system.cpu0.iq.FU_type_0::InstPrefetch              0      0.00%    100.00% # Type of FU issued
system.cpu0.iq.FU_type_0::total              19968929                       # Type of FU issued
system.cpu0.iq.rate                          1.057283                       # Inst issue rate
system.cpu0.iq.fu_busy_cnt                      87358                       # FU busy when requested
system.cpu0.iq.fu_busy_rate                  0.004375                       # FU busy rate (busy events/executed inst)
system.cpu0.iq.int_inst_queue_reads          58824428                       # Number of integer instruction queue reads
system.cpu0.iq.int_inst_queue_writes         20268543                       # Number of integer instruction queue writes
system.cpu0.iq.int_inst_queue_wakeup_accesses     19821228                       # Number of integer instruction queue wakeup accesses
system.cpu0.iq.fp_inst_queue_reads              16131                       # Number of floating instruction queue reads
system.cpu0.iq.fp_inst_queue_writes             13898                       # Number of floating instruction queue writes
system.cpu0.iq.fp_inst_queue_wakeup_accesses         5803                       # Number of floating instruction queue wakeup accesses
system.cpu0.iq.int_alu_accesses              20044320                       # Number of integer alu accesses
system.cpu0.iq.fp_alu_accesses                   8035                       # Number of floating point alu accesses
system.cpu0.iew.lsq.thread0.forwLoads            9080                       # Number of loads that had data forwarded from stores
system.cpu0.iew.lsq.thread0.invAddrLoads            0                       # Number of loads ignored due to an invalid address
system.cpu0.iew.lsq.thread0.squashedLoads        43999                       # Number of loads squashed
system.cpu0.iew.lsq.thread0.ignoredResponses           28                       # Number of memory responses ignored because the instruction is squashed
system.cpu0.iew.lsq.thread0.memOrderViolation           71                       # Number of memory ordering violations
system.cpu0.iew.lsq.thread0.squashedStores         9654                       # Number of stores squashed
system.cpu0.iew.lsq.thread0.invAddrSwpfs            0                       # Number of software prefetches ignored due to an invalid address
system.cpu0.iew.lsq.thread0.blockedLoads            0                       # Number of blocked loads due to partial load-store forwarding
system.cpu0.iew.lsq.thread0.rescheduledLoads            3                       # Number of loads that were rescheduled
system.cpu0.iew.lsq.thread0.cacheBlocked       113968                       # Number of times an access to memory failed due to the cache being blocked
system.cpu0.iew.iewIdleCycles                       0                       # Number of cycles IEW is idle
system.cpu0.iew.iewSquashCycles                  8208                       # Number of cycles IEW is squashing
system.cpu0.iew.iewBlockCycles                 115923                       # Number of cycles IEW is blocking
system.cpu0.iew.iewUnblockCycles                 6408                       # Number of cycles IEW is unblocking
system.cpu0.iew.iewDispatchedInsts           19963629                       # Number of instructions dispatched to IQ
system.cpu0.iew.iewDispSquashedInsts             2076                       # Number of squashed instructions skipped by dispatch
system.cpu0.iew.iewDispLoadInsts              3055808                       # Number of dispatched load instructions
system.cpu0.iew.iewDispStoreInsts              152659                       # Number of dispatched store instructions
system.cpu0.iew.iewDispNonSpecInsts            129200                       # Number of dispatched non-speculative instructions
system.cpu0.iew.iewIQFullEvents                   524                       # Number of times the IQ has become full, causing a stall
system.cpu0.iew.iewLSQFullEvents                 5502                       # Number of times the LSQ has become full, causing a stall
system.cpu0.iew.memOrderViolationEvents            71                       # Number of memory order violations
system.cpu0.iew.predictedTakenIncorrect          1898                       # Number of branches that were predicted taken incorrectly
system.cpu0.iew.predictedNotTakenIncorrect         8446                       # Number of branches that were predicted not taken incorrectly
system.cpu0.iew.branchMispredicts               10344                       # Number of branch mispredicts detected at execute
system.cpu0.iew.iewExecutedInsts             19949395                       # Number of executed instructions
system.cpu0.iew.iewExecLoadInsts              3151145                       # Number of load instructions executed
system.cpu0.iew.iewExecSquashedInsts            19534                       # Number of squashed instructions skipped in execute
system.cpu0.iew.exec_swp                            0                       # number of swp insts executed
system.cpu0.iew.exec_nop                            0                       # number of nop insts executed
system.cpu0.iew.exec_refs                     3298645                       # number of memory reference insts executed
system.cpu0.iew.exec_branches                 3396404                       # Number of branches executed
system.cpu0.iew.exec_stores                    147500                       # Number of stores executed
system.cpu0.iew.exec_rate                    1.056248                       # Inst execution rate
system.cpu0.iew.wb_sent                      19831665                       # cumulative count of insts sent to commit
system.cpu0.iew.wb_count                     19827031                       # cumulative count of insts written-back
system.cpu0.iew.wb_producers                 14108210                       # num instructions producing a value
system.cpu0.iew.wb_consumers                 19876978                       # num instructions consuming a value
system.cpu0.iew.wb_rate                      1.049770                       # insts written-back per cycle
system.cpu0.iew.wb_fanout                    0.709776                       # average fanout of values written-back
system.cpu0.commit.commitSquashedInsts         318808                       # The number of squashed insts skipped by commit
system.cpu0.commit.commitNonSpecStalls         129164                       # The number of times commit has been forced to stall to communicate backwards
system.cpu0.commit.branchMispredicts             8156                       # The number of times a branch was mispredicted
system.cpu0.commit.committed_per_cycle::samples     18761322                       # Number of insts commited each cycle
system.cpu0.commit.committed_per_cycle::mean     1.047095                       # Number of insts commited each cycle
system.cpu0.commit.committed_per_cycle::stdev     2.283023                       # Number of insts commited each cycle
system.cpu0.commit.committed_per_cycle::underflows            0      0.00%      0.00% # Number of insts commited each cycle
system.cpu0.commit.committed_per_cycle::0     13651201     72.76%     72.76% # Number of insts commited each cycle
system.cpu0.commit.committed_per_cycle::1      1761771      9.39%     82.15% # Number of insts commited each cycle
system.cpu0.commit.committed_per_cycle::2       205077      1.09%     83.25% # Number of insts commited each cycle
system.cpu0.commit.committed_per_cycle::3      1433095      7.64%     90.88% # Number of insts commited each cycle
system.cpu0.commit.committed_per_cycle::4        73119      0.39%     91.27% # Number of insts commited each cycle
system.cpu0.commit.committed_per_cycle::5         5280      0.03%     91.30% # Number of insts commited each cycle
system.cpu0.commit.committed_per_cycle::6        66798      0.36%     91.66% # Number of insts commited each cycle
system.cpu0.commit.committed_per_cycle::7        65843      0.35%     92.01% # Number of insts commited each cycle
system.cpu0.commit.committed_per_cycle::8      1499138      7.99%    100.00% # Number of insts commited each cycle
system.cpu0.commit.committed_per_cycle::overflows            0      0.00%    100.00% # Number of insts commited each cycle
system.cpu0.commit.committed_per_cycle::min_value            0                       # Number of insts commited each cycle
system.cpu0.commit.committed_per_cycle::max_value            8                       # Number of insts commited each cycle
system.cpu0.commit.committed_per_cycle::total     18761322                       # Number of insts commited each cycle
system.cpu0.commit.committedInsts             9840897                       # Number of instructions committed
system.cpu0.commit.committedOps              19644879                       # Number of ops (including micro ops) committed
system.cpu0.commit.swp_count                        0                       # Number of s/w prefetches committed
system.cpu0.commit.refs                       3154814                       # Number of memory references committed
system.cpu0.commit.loads                      3011809                       # Number of loads committed
system.cpu0.commit.membars                          0                       # Number of memory barriers committed
system.cpu0.commit.branches                   3383737                       # Number of branches committed
system.cpu0.commit.fp_insts                      3646                       # Number of committed floating point instructions.
system.cpu0.commit.int_insts                 19641414                       # Number of committed integer instructions.
system.cpu0.commit.function_calls              129830                       # Number of function calls committed.
system.cpu0.commit.op_class_0::No_OpClass         1330      0.01%      0.01% # Class of committed instruction
system.cpu0.commit.op_class_0::IntAlu        16418806     83.58%     83.58% # Class of committed instruction
system.cpu0.commit.op_class_0::IntMult          66393      0.34%     83.92% # Class of committed instruction
system.cpu0.commit.op_class_0::IntDiv            1171      0.01%     83.93% # Class of committed instruction
system.cpu0.commit.op_class_0::FloatAdd          2365      0.01%     83.94% # Class of committed instruction
system.cpu0.commit.op_class_0::FloatCmp             0      0.00%     83.94% # Class of committed instruction
system.cpu0.commit.op_class_0::FloatCvt             0      0.00%     83.94% # Class of committed instruction
system.cpu0.commit.op_class_0::FloatMult            0      0.00%     83.94% # Class of committed instruction
system.cpu0.commit.op_class_0::FloatMultAcc            0      0.00%     83.94% # Class of committed instruction
system.cpu0.commit.op_class_0::FloatDiv             0      0.00%     83.94% # Class of committed instruction
system.cpu0.commit.op_class_0::FloatMisc            0      0.00%     83.94% # Class of committed instruction
system.cpu0.commit.op_class_0::FloatSqrt            0      0.00%     83.94% # Class of committed instruction
system.cpu0.commit.op_class_0::SimdAdd              0      0.00%     83.94% # Class of committed instruction
system.cpu0.commit.op_class_0::SimdAddAcc            0      0.00%     83.94% # Class of committed instruction
system.cpu0.commit.op_class_0::SimdAlu              0      0.00%     83.94% # Class of committed instruction
system.cpu0.commit.op_class_0::SimdCmp              0      0.00%     83.94% # Class of committed instruction
system.cpu0.commit.op_class_0::SimdCvt              0      0.00%     83.94% # Class of committed instruction
system.cpu0.commit.op_class_0::SimdMisc             0      0.00%     83.94% # Class of committed instruction
system.cpu0.commit.op_class_0::SimdMult             0      0.00%     83.94% # Class of committed instruction
system.cpu0.commit.op_class_0::SimdMultAcc            0      0.00%     83.94% # Class of committed instruction
system.cpu0.commit.op_class_0::SimdShift            0      0.00%     83.94% # Class of committed instruction
system.cpu0.commit.op_class_0::SimdShiftAcc            0      0.00%     83.94% # Class of committed instruction
system.cpu0.commit.op_class_0::SimdSqrt             0      0.00%     83.94% # Class of committed instruction
system.cpu0.commit.op_class_0::SimdFloatAdd            0      0.00%     83.94% # Class of committed instruction
system.cpu0.commit.op_class_0::SimdFloatAlu            0      0.00%     83.94% # Class of committed instruction
system.cpu0.commit.op_class_0::SimdFloatCmp            0      0.00%     83.94% # Class of committed instruction
system.cpu0.commit.op_class_0::SimdFloatCvt            0      0.00%     83.94% # Class of committed instruction
system.cpu0.commit.op_class_0::SimdFloatDiv            0      0.00%     83.94% # Class of committed instruction
system.cpu0.commit.op_class_0::SimdFloatMisc            0      0.00%     83.94% # Class of committed instruction
system.cpu0.commit.op_class_0::SimdFloatMult            0      0.00%     83.94% # Class of committed instruction
system.cpu0.commit.op_class_0::SimdFloatMultAcc            0      0.00%     83.94% # Class of committed instruction
system.cpu0.commit.op_class_0::SimdFloatSqrt            0      0.00%     83.94% # Class of committed instruction
system.cpu0.commit.op_class_0::MemRead        3010977     15.33%     99.27% # Class of committed instruction
system.cpu0.commit.op_class_0::MemWrite        142621      0.73%     99.99% # Class of committed instruction
system.cpu0.commit.op_class_0::FloatMemRead          832      0.00%    100.00% # Class of committed instruction
system.cpu0.commit.op_class_0::FloatMemWrite          384      0.00%    100.00% # Class of committed instruction
system.cpu0.commit.op_class_0::IprAccess            0      0.00%    100.00% # Class of committed instruction
system.cpu0.commit.op_class_0::InstPrefetch            0      0.00%    100.00% # Class of committed instruction
system.cpu0.commit.op_class_0::total         19644879                       # Class of committed instruction
system.cpu0.commit.bw_lim_events              1499138                       # number cycles where commit BW limit reached
system.cpu0.rob.rob_reads                    37225832                       # The number of ROB reads
system.cpu0.rob.rob_writes                   39975644                       # The number of ROB writes
system.cpu0.timesIdled                            787                       # Number of times that the entire CPU went into an idle state and unscheduled itself
system.cpu0.idleCycles                          78017                       # Total number of cycles that the CPU has spent unscheduled due to idling
system.cpu0.committedInsts                    9840897                       # Number of Instructions Simulated
system.cpu0.committedOps                     19644879                       # Number of Ops (including micro ops) Simulated
system.cpu0.cpi                              1.919239                       # CPI: Cycles Per Instruction
system.cpu0.cpi_total                        1.919239                       # CPI: Total CPI of All Threads
system.cpu0.ipc                              0.521040                       # IPC: Instructions Per Cycle
system.cpu0.ipc_total                        0.521040                       # IPC: Total IPC of All Threads
system.cpu0.int_regfile_reads                21478918                       # number of integer regfile reads
system.cpu0.int_regfile_writes               16475288                       # number of integer regfile writes
system.cpu0.fp_regfile_reads                     8681                       # number of floating regfile reads
system.cpu0.fp_regfile_writes                    4972                       # number of floating regfile writes
system.cpu0.cc_regfile_reads                 11068747                       # number of cc regfile reads
system.cpu0.cc_regfile_writes                 5915135                       # number of cc regfile writes
system.cpu0.misc_regfile_reads               11207860                       # number of misc regfile reads
system.cpu1.branchPred.lookups                4548334                       # Number of BP lookups
system.cpu1.branchPred.condPredicted          4548334                       # Number of conditional branches predicted
system.cpu1.branchPred.condIncorrect             8670                       # Number of conditional branches incorrect
system.cpu1.branchPred.BTBLookups             4278460                       # Number of BTB lookups
system.cpu1.branchPred.BTBHits                      0                       # Number of BTB hits
system.cpu1.branchPred.BTBCorrect                   0                       # Number of correct BTB predictions (this stat may not work properly.
system.cpu1.branchPred.BTBHitPct             0.000000                       # BTB Hit Percentage
system.cpu1.branchPred.usedRAS                 240974                       # Number of times the RAS was used to get a target.
system.cpu1.branchPred.RASInCorrect               480                       # Number of incorrect RAS predictions.
system.cpu1.branchPred.indirectLookups        4278460                       # Number of indirect predictor lookups.
system.cpu1.branchPred.indirectHits           2372849                       # Number of indirect target hits.
system.cpu1.branchPred.indirectMisses         1905611                       # Number of indirect misses.
system.cpu1.branchPredindirectMispredicted         4581                       # Number of mispredicted indirect branches.
system.cpu1.clk_domain.clock                      500                       # Clock period in ticks
system.cpu1.dtb.walker.pwrStateResidencyTicks::UNDEFINED  22522933500                       # Cumulative time (in ticks) in various power states
system.cpu1.apic_clk_domain.clock                8000                       # Clock period in ticks
system.cpu1.interrupts.pwrStateResidencyTicks::UNDEFINED  22522933500                       # Cumulative time (in ticks) in various power states
system.cpu1.itb.walker.pwrStateResidencyTicks::UNDEFINED  22522933500                       # Cumulative time (in ticks) in various power states
system.cpu1.workload.num_syscalls              238660                       # Number of system calls
system.cpu1.pwrStateResidencyTicks::ON    22522933500                       # Cumulative time (in ticks) in various power states
system.cpu1.numCycles                        28293374                       # number of cpu cycles simulated
system.cpu1.numWorkItemsStarted                     0                       # number of work items this cpu started
system.cpu1.numWorkItemsCompleted                   0                       # number of work items this cpu completed
system.cpu1.fetch.icacheStallCycles           1770997                       # Number of cycles fetch is stalled on an Icache miss
system.cpu1.fetch.Insts                      13258496                       # Number of instructions fetch has processed
system.cpu1.fetch.Branches                    4548334                       # Number of branches that fetch encountered
system.cpu1.fetch.predictedBranches           2613823                       # Number of branches that fetch has predicted taken
system.cpu1.fetch.Cycles                     26416030                       # Number of cycles fetch has run and was not squashing or blocked
system.cpu1.fetch.SquashCycles                  17477                       # Number of cycles fetch has spent squashing
system.cpu1.fetch.MiscStallCycles               10737                       # Number of cycles fetch has spent waiting on interrupts, or bad addresses, or out of MSHRs
system.cpu1.fetch.NoActiveThreadStallCycles           10                       # Number of stall cycles due to no active thread to fetch from
system.cpu1.fetch.PendingTrapStallCycles          512                       # Number of stall cycles due to pending traps
system.cpu1.fetch.PendingQuiesceStallCycles           13                       # Number of stall cycles due to pending quiesce instructions
system.cpu1.fetch.IcacheWaitRetryStallCycles         6773                       # Number of stall cycles due to full MSHR
system.cpu1.fetch.CacheLines                  1743953                       # Number of cache lines fetched
system.cpu1.fetch.IcacheSquashes                 2626                       # Number of outstanding Icache misses that were squashed
system.cpu1.fetch.rateDist::samples          28213810                       # Number of instructions fetched each cycle (Total)
system.cpu1.fetch.rateDist::mean             0.935937                       # Number of instructions fetched each cycle (Total)
system.cpu1.fetch.rateDist::stdev            2.298136                       # Number of instructions fetched each cycle (Total)
system.cpu1.fetch.rateDist::underflows              0      0.00%      0.00% # Number of instructions fetched each cycle (Total)
system.cpu1.fetch.rateDist::0                23473998     83.20%     83.20% # Number of instructions fetched each cycle (Total)
system.cpu1.fetch.rateDist::1                  368007      1.30%     84.50% # Number of instructions fetched each cycle (Total)
system.cpu1.fetch.rateDist::2                  123355      0.44%     84.94% # Number of instructions fetched each cycle (Total)
system.cpu1.fetch.rateDist::3                  367477      1.30%     86.24% # Number of instructions fetched each cycle (Total)
system.cpu1.fetch.rateDist::4                 1270899      4.50%     90.75% # Number of instructions fetched each cycle (Total)
system.cpu1.fetch.rateDist::5                  134674      0.48%     91.23% # Number of instructions fetched each cycle (Total)
system.cpu1.fetch.rateDist::6                  246483      0.87%     92.10% # Number of instructions fetched each cycle (Total)
system.cpu1.fetch.rateDist::7                  378005      1.34%     93.44% # Number of instructions fetched each cycle (Total)
system.cpu1.fetch.rateDist::8                 1850912      6.56%    100.00% # Number of instructions fetched each cycle (Total)
system.cpu1.fetch.rateDist::overflows               0      0.00%    100.00% # Number of instructions fetched each cycle (Total)
system.cpu1.fetch.rateDist::min_value               0                       # Number of instructions fetched each cycle (Total)
system.cpu1.fetch.rateDist::max_value               8                       # Number of instructions fetched each cycle (Total)
system.cpu1.fetch.rateDist::total            28213810                       # Number of instructions fetched each cycle (Total)
system.cpu1.fetch.branchRate                 0.160756                       # Number of branch fetches per cycle
system.cpu1.fetch.rate                       0.468608                       # Number of inst fetches per cycle
system.cpu1.decode.IdleCycles                  962532                       # Number of cycles decode is idle
system.cpu1.decode.BlockedCycles             23640645                       # Number of cycles decode is blocked
system.cpu1.decode.RunCycles                  1323930                       # Number of cycles decode is running
system.cpu1.decode.UnblockCycles              2277955                       # Number of cycles decode is unblocking
system.cpu1.decode.SquashCycles                  8738                       # Number of cycles decode is squashing
system.cpu1.decode.DecodedInsts              26321912                       # Number of instructions handled by decode
system.cpu1.rename.SquashCycles                  8738                       # Number of cycles rename is squashing
system.cpu1.rename.IdleCycles                 1540357                       # Number of cycles rename is idle
system.cpu1.rename.BlockCycles                4055425                       # Number of cycles rename is blocking
system.cpu1.rename.serializeStallCycles      16267819                       # count of cycles rename stalled for serializing inst
system.cpu1.rename.RunCycles                  2098889                       # Number of cycles rename is running
system.cpu1.rename.UnblockCycles              4242572                       # Number of cycles rename is unblocking
system.cpu1.rename.RenamedInsts              26279625                       # Number of instructions processed by rename
system.cpu1.rename.ROBFullEvents              2344599                       # Number of times rename has blocked due to ROB full
system.cpu1.rename.IQFullEvents                 12670                       # Number of times rename has blocked due to IQ full
system.cpu1.rename.LQFullEvents                951729                       # Number of times rename has blocked due to LQ full
system.cpu1.rename.SQFullEvents                147410                       # Number of times rename has blocked due to SQ full
system.cpu1.rename.RenamedOperands           28855552                       # Number of destination operands rename has renamed
system.cpu1.rename.RenameLookups             58798426                       # Number of register rename lookups that rename has made
system.cpu1.rename.int_rename_lookups        29142067                       # Number of integer rename lookups
system.cpu1.rename.fp_rename_lookups            18430                       # Number of floating rename lookups
system.cpu1.rename.CommittedMaps             28347723                       # Number of HB maps that are committed
system.cpu1.rename.UndoneMaps                  507829                       # Number of HB maps that are undone due to squashing
system.cpu1.rename.serializingInsts            238695                       # count of serializing insts renamed
system.cpu1.rename.tempSerializingInsts        238696                       # count of temporary serializing insts renamed
system.cpu1.rename.skidInsts                 14306443                       # count of insts added to the skid buffer
system.cpu1.memDep0.insertedLoads             3909065                       # Number of loads inserted to the mem dependence unit.
system.cpu1.memDep0.insertedStores             284750                       # Number of stores inserted to the mem dependence unit.
system.cpu1.memDep0.conflictingLoads            19021                       # Number of conflicting loads.
system.cpu1.memDep0.conflictingStores             227                       # Number of conflicting stores.
system.cpu1.iq.iqInstsAdded                  25965071                       # Number of instructions added to the IQ (excludes non-spec)
system.cpu1.iq.iqNonSpecInstsAdded             238728                       # Number of non-speculative instructions added to the IQ
system.cpu1.iq.iqInstsIssued                 26227114                       # Number of instructions issued
system.cpu1.iq.iqSquashedInstsIssued             6542                       # Number of squashed instructions issued
system.cpu1.iq.iqSquashedInstsExamined         335396                       # Number of squashed instructions iterated over during squash; mainly for profiling
system.cpu1.iq.iqSquashedOperandsExamined       506520                       # Number of squashed operands that are examined and possibly removed from graph
system.cpu1.iq.iqSquashedNonSpecRemoved            68                       # Number of squashed non-spec instructions that were removed
system.cpu1.iq.issued_per_cycle::samples     28213810                       # Number of insts issued each cycle
[...]
system.ruby.L1Cache_Controller.S.Transient_Local_GETS_Last_Token::total            2                      
system.ruby.L1Cache_Controller.O.Load    |           0      0.00%      0.00% |     1204606    100.00%    100.00% |           0      0.00%    100.00% |           0      0.00%    100.00% |           3      0.00%    100.00%
system.ruby.L1Cache_Controller.O.Load::total      1204609                      
system.ruby.L1Cache_Controller.O.Store   |           0      0.00%      0.00% |           0      0.00%      0.00% |           0      0.00%      0.00% |           0      0.00%      0.00% |           1    100.00%    100.00%
system.ruby.L1Cache_Controller.O.Store::total            1                      
system.ruby.L1Cache_Controller.O.Transient_Local_GETX |           0      0.00%      0.00% |           1    100.00%    100.00% |           0      0.00%    100.00% |           0      0.00%    100.00% |           0      0.00%    100.00%
system.ruby.L1Cache_Controller.O.Transient_Local_GETX::total            1                      
system.ruby.L1Cache_Controller.O.Own_Lock_or_Unlock |           0      0.00%      0.00% |           1    100.00%    100.00% |           0      0.00%    100.00% |           0      0.00%    100.00% |           0      0.00%    100.00%
system.ruby.L1Cache_Controller.O.Own_Lock_or_Unlock::total            1                      
system.ruby.L1Cache_Controller.M.Load    |       21902      2.93%      2.93% |       75306     10.08%     13.01% |      109805     14.70%     27.71% |      495793     66.37%     94.08% |       44251      5.92%    100.00%
system.ruby.L1Cache_Controller.M.Load::total       747057                      
system.ruby.L1Cache_Controller.M.Ifetch  |      305942     12.20%     12.20% |      786555     31.37%     43.57% |       83326      3.32%     46.89% |     1331837     53.11%    100.00% |           0      0.00%    100.00%
system.ruby.L1Cache_Controller.M.Ifetch::total      2507660                      
system.ruby.L1Cache_Controller.M.Store   |          51      3.74%      3.74% |          49      3.60%      7.34% |          49      3.60%     10.93% |          46      3.37%     14.31% |        1168     85.69%    100.00%
system.ruby.L1Cache_Controller.M.Store::total         1363                      
system.ruby.L1Cache_Controller.M.L1_Replacement |        1821     16.10%     16.10% |        2497     22.08%     38.18% |        2497     22.08%     60.26% |        2501     22.12%     82.38% |        1993     17.62%    100.00%
system.ruby.L1Cache_Controller.M.L1_Replacement::total        11309                      
system.ruby.L1Cache_Controller.M.Transient_Local_GETS |           0      0.00%      0.00% |           0      0.00%      0.00% |           0      0.00%      0.00% |           0      0.00%      0.00% |           1    100.00%    100.00%
system.ruby.L1Cache_Controller.M.Transient_Local_GETS::total            1                      
system.ruby.L1Cache_Controller.M.Persistent_GETX |           0      0.00%      0.00% |           1     33.33%     33.33% |           1     33.33%     66.67% |           1     33.33%    100.00% |           0      0.00%    100.00%
system.ruby.L1Cache_Controller.M.Persistent_GETX::total            3                      
system.ruby.L1Cache_Controller.M.Persistent_GETS |           0      0.00%      0.00% |           0      0.00%      0.00% |           0      0.00%      0.00% |           0      0.00%      0.00% |           1    100.00%    100.00%
system.ruby.L1Cache_Controller.M.Persistent_GETS::total            1                      
system.ruby.L1Cache_Controller.M.Own_Lock_or_Unlock |         241     31.88%     31.88% |         162     21.43%     53.31% |         177     23.41%     76.72% |         176     23.28%    100.00% |           0      0.00%    100.00%
system.ruby.L1Cache_Controller.M.Own_Lock_or_Unlock::total          756                      
system.ruby.L1Cache_Controller.MM.Load   |      151662     10.87%     10.87% |      317608     22.76%     33.64% |      104608      7.50%     41.13% |      821305     58.87%    100.00% |           0      0.00%    100.00%
system.ruby.L1Cache_Controller.MM.Load::total      1395183                      
system.ruby.L1Cache_Controller.MM.Store  |      140033     12.67%     12.67% |      266036     24.06%     36.73% |       36374      3.29%     40.02% |      515739     46.65%     86.66% |      147461     13.34%    100.00%
system.ruby.L1Cache_Controller.MM.Store::total      1105643                      
system.ruby.L1Cache_Controller.MM.L1_Replacement |         541      2.84%      2.84% |         584      3.07%      5.91% |        1102      5.79%     11.70% |        7389     38.81%     50.50% |        9424     49.50%    100.00%
system.ruby.L1Cache_Controller.MM.L1_Replacement::total        19040                      
system.ruby.L1Cache_Controller.MM.Transient_Local_GETS |         113      3.57%      3.57% |        1011     31.96%     35.54% |        1018     32.18%     67.72% |        1021     32.28%    100.00% |           0      0.00%    100.00%
system.ruby.L1Cache_Controller.MM.Transient_Local_GETS::total         3163                      
system.ruby.L1Cache_Controller.MM.Persistent_GETS |           0      0.00%      0.00% |           0      0.00%      0.00% |           0      0.00%      0.00% |           0      0.00%      0.00% |           7    100.00%    100.00%
system.ruby.L1Cache_Controller.MM.Persistent_GETS::total            7                      
system.ruby.L1Cache_Controller.MM.Own_Lock_or_Unlock |         127     27.25%     27.25% |         131     28.11%     55.36% |          62     13.30%     68.67% |         143     30.69%     99.36% |           3      0.64%    100.00%
system.ruby.L1Cache_Controller.MM.Own_Lock_or_Unlock::total          466                      
system.ruby.L1Cache_Controller.M_W.Load  |       11102     23.34%     23.34% |       10826     22.76%     46.09% |       11291     23.73%     69.83% |       11181     23.50%     93.33% |        3174      6.67%    100.00%
system.ruby.L1Cache_Controller.M_W.Load::total        47574                      
system.ruby.L1Cache_Controller.M_W.Ifetch |         419     24.71%     24.71% |         429     25.29%     50.00% |         418     24.65%     74.65% |         430     25.35%    100.00% |           0      0.00%    100.00%
system.ruby.L1Cache_Controller.M_W.Ifetch::total         1696                      
system.ruby.L1Cache_Controller.M_W.Store |           8     21.05%     21.05% |           9     23.68%     44.74% |           9     23.68%     68.42% |          12     31.58%    100.00% |           0      0.00%    100.00%
system.ruby.L1Cache_Controller.M_W.Store::total           38                      
system.ruby.L1Cache_Controller.M_W.Transient_Local_GETX |           0      0.00%      0.00% |           1     33.33%     33.33% |           1     33.33%     66.67% |           1     33.33%    100.00% |           0      0.00%    100.00%
system.ruby.L1Cache_Controller.M_W.Transient_Local_GETX::total            3                      
system.ruby.L1Cache_Controller.M_W.Transient_Local_GETS |           0      0.00%      0.00% |           0      0.00%      0.00% |           0      0.00%      0.00% |           0      0.00%      0.00% |           1    100.00%    100.00%
system.ruby.L1Cache_Controller.M_W.Transient_Local_GETS::total            1                      
system.ruby.L1Cache_Controller.M_W.Own_Lock_or_Unlock |          17     20.00%     20.00% |          22     25.88%     45.88% |          24     28.24%     74.12% |          22     25.88%    100.00% |           0      0.00%    100.00%
system.ruby.L1Cache_Controller.M_W.Own_Lock_or_Unlock::total           85                      
system.ruby.L1Cache_Controller.M_W.Use_TimeoutNoStarvers |        3033     19.87%     19.87% |        3027     19.83%     39.69% |        3026     19.82%     59.51% |        3019     19.77%     79.28% |        3163     20.72%    100.00%
system.ruby.L1Cache_Controller.M_W.Use_TimeoutNoStarvers::total        15268                      
system.ruby.L1Cache_Controller.MM_W.Load |          43     28.10%     28.10% |          33     21.57%     49.67% |          35     22.88%     72.55% |          42     27.45%    100.00% |           0      0.00%    100.00%
system.ruby.L1Cache_Controller.MM_W.Load::total          153                      
system.ruby.L1Cache_Controller.MM_W.Store |        2619      3.76%      3.76% |        7057     10.14%     13.90% |        9616     13.81%     27.71% |       41034     58.95%     86.66% |        9284     13.34%    100.00%
system.ruby.L1Cache_Controller.MM_W.Store::total        69610                      
system.ruby.L1Cache_Controller.MM_W.Transient_Local_GETS |           0      0.00%      0.00% |           0      0.00%      0.00% |           0      0.00%      0.00% |           0      0.00%      0.00% |           7    100.00%    100.00%
system.ruby.L1Cache_Controller.MM_W.Transient_Local_GETS::total            7                      
system.ruby.L1Cache_Controller.MM_W.Own_Lock_or_Unlock |           3     21.43%     21.43% |           3     21.43%     42.86% |           3     21.43%     64.29% |           5     35.71%    100.00% |           0      0.00%    100.00%
system.ruby.L1Cache_Controller.MM_W.Own_Lock_or_Unlock::total           14                      
system.ruby.L1Cache_Controller.MM_W.Use_TimeoutNoStarvers |         690      3.13%      3.13% |        1571      7.13%     10.26% |        2096      9.51%     19.77% |        8389     38.07%     57.85% |        9287     42.15%    100.00%
system.ruby.L1Cache_Controller.MM_W.Use_TimeoutNoStarvers::total        22033                      
system.ruby.L1Cache_Controller.IM.Data_All_Tokens |         633      2.90%      2.90% |        1514      6.95%      9.85% |        2038      9.35%     19.20% |        8330     38.21%     57.41% |        9283     42.59%    100.00%
system.ruby.L1Cache_Controller.IM.Data_All_Tokens::total        21798                      
system.ruby.L1Cache_Controller.IM.Ack    |           0      0.00%      0.00% |           0      0.00%      0.00% |           0      0.00%      0.00% |           0      0.00%      0.00% |           2    100.00%    100.00%
system.ruby.L1Cache_Controller.IM.Ack::total            2                      
system.ruby.L1Cache_Controller.IM.Own_Lock_or_Unlock |         123     27.39%     27.39% |         128     28.51%     55.90% |          58     12.92%     68.82% |         137     30.51%     99.33% |           3      0.67%    100.00%
system.ruby.L1Cache_Controller.IM.Own_Lock_or_Unlock::total          449                      
system.ruby.L1Cache_Controller.IM.Request_Timeout |         368     32.25%     32.25% |         267     23.40%     55.65% |         167     14.64%     70.29% |         336     29.45%     99.74% |           3      0.26%    100.00%
system.ruby.L1Cache_Controller.IM.Request_Timeout::total         1141                      
system.ruby.L1Cache_Controller.SM.Data_All_Tokens |          49     25.00%     25.00% |          48     24.49%     49.49% |          49     25.00%     74.49% |          47     23.98%     98.47% |           3      1.53%    100.00%
system.ruby.L1Cache_Controller.SM.Data_All_Tokens::total          196                      
system.ruby.L1Cache_Controller.OM.Ack_All_Tokens |           0      0.00%      0.00% |           0      0.00%      0.00% |           0      0.00%      0.00% |           0      0.00%      0.00% |           1    100.00%    100.00%
system.ruby.L1Cache_Controller.OM.Ack_All_Tokens::total            1                      
system.ruby.L1Cache_Controller.IS.L1_Replacement |           0      0.00%      0.00% |           0      0.00%      0.00% |           1    100.00%    100.00% |           0      0.00%    100.00% |           0      0.00%    100.00%
system.ruby.L1Cache_Controller.IS.L1_Replacement::total            1                      
system.ruby.L1Cache_Controller.IS.Data_Shared |         390      4.41%      4.41% |         406      4.59%      8.99% |         381      4.31%     13.30% |         384      4.34%     17.64% |        7289     82.36%    100.00%
system.ruby.L1Cache_Controller.IS.Data_Shared::total         8850                      
system.ruby.L1Cache_Controller.IS.Data_Owner |           0      0.00%      0.00% |           1    100.00%    100.00% |           0      0.00%    100.00% |           0      0.00%    100.00% |           0      0.00%    100.00%
system.ruby.L1Cache_Controller.IS.Data_Owner::total            1                      
system.ruby.L1Cache_Controller.IS.Data_All_Tokens |        3041     19.87%     19.87% |        3036     19.83%     39.70% |        3035     19.83%     59.53% |        3032     19.81%     79.34% |        3163     20.66%    100.00%
system.ruby.L1Cache_Controller.IS.Data_All_Tokens::total        15307                      
system.ruby.L1Cache_Controller.IS.Own_Lock_or_Unlock |         225     33.33%     33.33% |         141     20.89%     54.22% |         154     22.81%     77.04% |         155     22.96%    100.00% |           0      0.00%    100.00%
system.ruby.L1Cache_Controller.IS.Own_Lock_or_Unlock::total          675                      
system.ruby.L1Cache_Controller.IS.Request_Timeout |        1931     33.26%     33.26% |        1392     23.98%     57.23% |        1221     21.03%     78.26% |        1262     21.74%    100.00% |           0      0.00%    100.00%
system.ruby.L1Cache_Controller.IS.Request_Timeout::total         5806                      
system.ruby.L1Cache_Controller.I_L.Load  |           0      0.00%      0.00% |           1     33.33%     33.33% |           1     33.33%     66.67% |           1     33.33%    100.00% |           0      0.00%    100.00%
system.ruby.L1Cache_Controller.I_L.Load::total            3                      
system.ruby.L1Cache_Controller.I_L.Store |           0      0.00%      0.00% |           0      0.00%      0.00% |           0      0.00%      0.00% |           0      0.00%      0.00% |           3    100.00%    100.00%
system.ruby.L1Cache_Controller.I_L.Store::total            3                      
system.ruby.L1Cache_Controller.I_L.Transient_Local_GETX |           3     33.33%     33.33% |           2     22.22%     55.56% |           2     22.22%     77.78% |           2     22.22%    100.00% |           0      0.00%    100.00%
system.ruby.L1Cache_Controller.I_L.Transient_Local_GETX::total            9                      
system.ruby.L1Cache_Controller.I_L.Transient_Local_GETS |           3     33.33%     33.33% |           2     22.22%     55.56% |           2     22.22%     77.78% |           2     22.22%    100.00% |           0      0.00%    100.00%
system.ruby.L1Cache_Controller.I_L.Transient_Local_GETS::total            9                      
system.ruby.L1Cache_Controller.I_L.Persistent_GETX |         337     18.23%     18.23% |         331     17.90%     36.13% |         401     21.69%     57.82% |         320     17.31%     75.12% |         460     24.88%    100.00%
system.ruby.L1Cache_Controller.I_L.Persistent_GETX::total         1849                      
system.ruby.L1Cache_Controller.I_L.Persistent_GETS |         518     17.08%     17.08% |         597     19.69%     36.77% |         582     19.20%     55.97% |         583     19.23%     75.20% |         752     24.80%    100.00%
system.ruby.L1Cache_Controller.I_L.Persistent_GETS::total         3032                      
system.ruby.L1Cache_Controller.I_L.Own_Lock_or_Unlock |           0      0.00%      0.00% |           0      0.00%      0.00% |           0      0.00%      0.00% |           0      0.00%      0.00% |           4    100.00%    100.00%
system.ruby.L1Cache_Controller.I_L.Own_Lock_or_Unlock::total            4                      
system.ruby.L1Cache_Controller.S_L.Load  |           0      0.00%      0.00% |           0      0.00%      0.00% |           0      0.00%      0.00% |           0      0.00%      0.00% |           1    100.00%    100.00%
system.ruby.L1Cache_Controller.S_L.Load::total            1                      
system.ruby.L1Cache_Controller.S_L.Own_Lock_or_Unlock |           0      0.00%      0.00% |           0      0.00%      0.00% |           0      0.00%      0.00% |           0      0.00%      0.00% |           1    100.00%    100.00%
system.ruby.L1Cache_Controller.S_L.Own_Lock_or_Unlock::total            1                      
system.ruby.L1Cache_Controller.IM_L.Own_Lock_or_Unlock |           0      0.00%      0.00% |           0      0.00%      0.00% |           0      0.00%      0.00% |           0      0.00%      0.00% |           3    100.00%    100.00%
system.ruby.L1Cache_Controller.IM_L.Own_Lock_or_Unlock::total            3                      
system.ruby.L1Cache_Controller.IS_L.Own_Lock_or_Unlock |           0      0.00%      0.00% |           1     33.33%     33.33% |           1     33.33%     66.67% |           1     33.33%    100.00% |           0      0.00%    100.00%
system.ruby.L1Cache_Controller.IS_L.Own_Lock_or_Unlock::total            3                      
system.ruby.L2Cache_Controller.L1_GETS          24158      0.00%      0.00%
system.ruby.L2Cache_Controller.L1_GETX          21995      0.00%      0.00%
system.ruby.L2Cache_Controller.L1_INV            3177      0.00%      0.00%
system.ruby.L2Cache_Controller.L2_Replacement           23      0.00%      0.00%
system.ruby.L2Cache_Controller.Writeback_Shared_Data            2      0.00%      0.00%
system.ruby.L2Cache_Controller.Writeback_All_Tokens        38573      0.00%      0.00%
system.ruby.L2Cache_Controller.Persistent_GETX          463      0.00%      0.00%
system.ruby.L2Cache_Controller.Persistent_GETS          760      0.00%      0.00%
system.ruby.L2Cache_Controller.Own_Lock_or_Unlock         1223      0.00%      0.00%
system.ruby.L2Cache_Controller.NP.L1_GETS        15296      0.00%      0.00%
system.ruby.L2Cache_Controller.NP.L1_GETX        12309      0.00%      0.00%
system.ruby.L2Cache_Controller.NP.L1_INV         3159      0.00%      0.00%
system.ruby.L2Cache_Controller.NP.Writeback_All_Tokens        21815      0.00%      0.00%
system.ruby.L2Cache_Controller.NP.Own_Lock_or_Unlock         1212      0.00%      0.00%
system.ruby.L2Cache_Controller.I.L1_GETS           10      0.00%      0.00%
system.ruby.L2Cache_Controller.I.L1_GETX            2      0.00%      0.00%
system.ruby.L2Cache_Controller.I.L1_INV             8      0.00%      0.00%
system.ruby.L2Cache_Controller.I.Writeback_All_Tokens         8534      0.00%      0.00%
system.ruby.L2Cache_Controller.I.Persistent_GETX            3      0.00%      0.00%
system.ruby.L2Cache_Controller.I.Persistent_GETS            8      0.00%      0.00%
system.ruby.L2Cache_Controller.O.L1_GETS            2      0.00%      0.00%
system.ruby.L2Cache_Controller.O.L1_GETX          197      0.00%      0.00%
system.ruby.L2Cache_Controller.O.Writeback_Shared_Data            2      0.00%      0.00%
system.ruby.L2Cache_Controller.O.Writeback_All_Tokens         8224      0.00%      0.00%
system.ruby.L2Cache_Controller.M.L1_GETS         8847      0.00%      0.00%
system.ruby.L2Cache_Controller.M.L1_GETX         9484      0.00%      0.00%
system.ruby.L2Cache_Controller.M.L2_Replacement           23      0.00%      0.00%
system.ruby.L2Cache_Controller.I_L.L1_GETS            3      0.00%      0.00%
system.ruby.L2Cache_Controller.I_L.L1_GETX            3      0.00%      0.00%
system.ruby.L2Cache_Controller.I_L.L1_INV           10      0.00%      0.00%
system.ruby.L2Cache_Controller.I_L.Persistent_GETX          460      0.00%      0.00%
system.ruby.L2Cache_Controller.I_L.Persistent_GETS          752      0.00%      0.00%
system.ruby.L2Cache_Controller.I_L.Own_Lock_or_Unlock           11      0.00%      0.00%

---------- End Simulation Statistics   ----------
