
---------- Begin Simulation Statistics ----------
sim_seconds                                  0.000270                       # Number of seconds simulated
sim_ticks                                   269784500                       # Number of ticks simulated
final_tick                                  269784500                       # Number of ticks from beginning of simulation (restored from checkpoints and never reset)
sim_freq                                 1000000000000                       # Frequency of simulated ticks
host_inst_rate                                  26040                       # Simulator instruction rate (inst/s)
host_op_rate                                    49200                       # Simulator op (including micro ops) rate (op/s)
host_tick_rate                                9844060                       # Simulator tick rate (ticks/s)
host_mem_usage                                 848520                       # Number of bytes of host memory used
host_seconds                                    27.41                       # Real time elapsed on the host
sim_insts                                      713649                       # Number of instructions simulated
sim_ops                                       1348364                       # Number of ops (including micro ops) simulated
system.voltage_domain.voltage                       1                       # Voltage in Volts
system.clk_domain.clock                          1000                       # Clock period in ticks
system.mem_ctrls.pwrStateResidencyTicks::UNDEFINED    269784500                       # Cumulative time (in ticks) in various power states
system.mem_ctrls.bytes_read::ruby.dir_cntrl0       900608                       # Number of bytes read from this memory
system.mem_ctrls.bytes_read::total             900608                       # Number of bytes read from this memory
system.mem_ctrls.num_reads::ruby.dir_cntrl0        14072                       # Number of read requests responded to by this memory
system.mem_ctrls.num_reads::total               14072                       # Number of read requests responded to by this memory
system.mem_ctrls.bw_read::ruby.dir_cntrl0   3338249603                       # Total read bandwidth from this memory (bytes/s)
system.mem_ctrls.bw_read::total            3338249603                       # Total read bandwidth from this memory (bytes/s)
system.mem_ctrls.bw_total::ruby.dir_cntrl0   3338249603                       # Total bandwidth to/from this memory (bytes/s)
system.mem_ctrls.bw_total::total           3338249603                       # Total bandwidth to/from this memory (bytes/s)
system.mem_ctrls.readReqs                       14072                       # Number of read requests accepted
system.mem_ctrls.avgNetLat                       0.00                       # Average network latency to DRAM controller
system.mem_ctrls.writeReqs                          0                       # Number of write requests accepted
system.mem_ctrls.readBursts                     14072                       # Number of DRAM read bursts, including those serviced by the write queue
system.mem_ctrls.writeBursts                        0                       # Number of DRAM write bursts, including those merged in the write queue
system.mem_ctrls.bytesReadDRAM                 900608                       # Total number of bytes read from DRAM
system.mem_ctrls.bytesReadWrQ                       0                       # Total number of bytes read from write queue
system.mem_ctrls.bytesWritten                       0                       # Total number of bytes written to DRAM
system.mem_ctrls.bytesReadSys                  900608                       # Total read bytes from the system interface side
system.mem_ctrls.bytesWrittenSys                    0                       # Total written bytes from the system interface side
system.mem_ctrls.servicedByWrQ                      0                       # Number of DRAM read bursts serviced by the write queue
system.mem_ctrls.mergedWrBursts                     0                       # Number of DRAM write bursts merged with an existing one
system.mem_ctrls.neitherReadNorWriteReqs            0                       # Number of requests that are neither read nor write
system.mem_ctrls.perBankRdBursts::0               790                       # Per bank write bursts
system.mem_ctrls.perBankRdBursts::1               620                       # Per bank write bursts
system.mem_ctrls.perBankRdBursts::2               740                       # Per bank write bursts
system.mem_ctrls.perBankRdBursts::3               948                       # Per bank write bursts
system.mem_ctrls.perBankRdBursts::4              1102                       # Per bank write bursts
system.mem_ctrls.perBankRdBursts::5              1014                       # Per bank write bursts
system.mem_ctrls.perBankRdBursts::6               908                       # Per bank write bursts
system.mem_ctrls.perBankRdBursts::7               798                       # Per bank write bursts
system.mem_ctrls.perBankRdBursts::8               737                       # Per bank write bursts
system.mem_ctrls.perBankRdBursts::9               963                       # Per bank write bursts
system.mem_ctrls.perBankRdBursts::10             1011                       # Per bank write bursts
system.mem_ctrls.perBankRdBursts::11              911                       # Per bank write bursts
system.mem_ctrls.perBankRdBursts::12              867                       # Per bank write bursts
system.mem_ctrls.perBankRdBursts::13              913                       # Per bank write bursts
system.mem_ctrls.perBankRdBursts::14              879                       # Per bank write bursts
system.mem_ctrls.perBankRdBursts::15              871                       # Per bank write bursts
system.mem_ctrls.perBankWrBursts::0                 0                       # Per bank write bursts
system.mem_ctrls.perBankWrBursts::1                 0                       # Per bank write bursts
system.mem_ctrls.perBankWrBursts::2                 0                       # Per bank write bursts
system.mem_ctrls.perBankWrBursts::3                 0                       # Per bank write bursts
system.mem_ctrls.perBankWrBursts::4                 0                       # Per bank write bursts
system.mem_ctrls.perBankWrBursts::5                 0                       # Per bank write bursts
system.mem_ctrls.perBankWrBursts::6                 0                       # Per bank write bursts
system.mem_ctrls.perBankWrBursts::7                 0                       # Per bank write bursts
system.mem_ctrls.perBankWrBursts::8                 0                       # Per bank write bursts
system.mem_ctrls.perBankWrBursts::9                 0                       # Per bank write bursts
system.mem_ctrls.perBankWrBursts::10                0                       # Per bank write bursts
system.mem_ctrls.perBankWrBursts::11                0                       # Per bank write bursts
system.mem_ctrls.perBankWrBursts::12                0                       # Per bank write bursts
system.mem_ctrls.perBankWrBursts::13                0                       # Per bank write bursts
system.mem_ctrls.perBankWrBursts::14                0                       # Per bank write bursts
system.mem_ctrls.perBankWrBursts::15                0                       # Per bank write bursts
system.mem_ctrls.numRdRetry                         0                       # Number of times read queue was full causing retry
system.mem_ctrls.numWrRetry                         0                       # Number of times write queue was full causing retry
system.mem_ctrls.totGap                     269719000                       # Total gap between requests
system.mem_ctrls.readPktSize::0                     0                       # Read request sizes (log2)
system.mem_ctrls.readPktSize::1                     0                       # Read request sizes (log2)
system.mem_ctrls.readPktSize::2                     0                       # Read request sizes (log2)
system.mem_ctrls.readPktSize::3                     0                       # Read request sizes (log2)
system.mem_ctrls.readPktSize::4                     0                       # Read request sizes (log2)
system.mem_ctrls.readPktSize::5                     0                       # Read request sizes (log2)
system.mem_ctrls.readPktSize::6                 14072                       # Read request sizes (log2)
system.mem_ctrls.writePktSize::0                    0                       # Write request sizes (log2)
system.mem_ctrls.writePktSize::1                    0                       # Write request sizes (log2)
system.mem_ctrls.writePktSize::2                    0                       # Write request sizes (log2)
system.mem_ctrls.writePktSize::3                    0                       # Write request sizes (log2)
system.mem_ctrls.writePktSize::4                    0                       # Write request sizes (log2)
system.mem_ctrls.writePktSize::5                    0                       # Write request sizes (log2)
system.mem_ctrls.writePktSize::6                    0                       # Write request sizes (log2)
system.mem_ctrls.rdQLenPdf::0                    2023                       # What read queue length does an incoming req see
system.mem_ctrls.rdQLenPdf::1                    2703                       # What read queue length does an incoming req see
system.mem_ctrls.rdQLenPdf::2                    2369                       # What read queue length does an incoming req see
system.mem_ctrls.rdQLenPdf::3                    1787                       # What read queue length does an incoming req see
system.mem_ctrls.rdQLenPdf::4                    1311                       # What read queue length does an incoming req see
system.mem_ctrls.rdQLenPdf::5                     964                       # What read queue length does an incoming req see
system.mem_ctrls.rdQLenPdf::6                     831                       # What read queue length does an incoming req see
system.mem_ctrls.rdQLenPdf::7                     737                       # What read queue length does an incoming req see
system.mem_ctrls.rdQLenPdf::8                     558                       # What read queue length does an incoming req see
system.mem_ctrls.rdQLenPdf::9                     359                       # What read queue length does an incoming req see
system.mem_ctrls.rdQLenPdf::10                    204                       # What read queue length does an incoming req see
system.mem_ctrls.rdQLenPdf::11                    115                       # What read queue length does an incoming req see
system.mem_ctrls.rdQLenPdf::12                     57                       # What read queue length does an incoming req see
system.mem_ctrls.rdQLenPdf::13                     23                       # What read queue length does an incoming req see
system.mem_ctrls.rdQLenPdf::14                     16                       # What read queue length does an incoming req see
system.mem_ctrls.rdQLenPdf::15                      7                       # What read queue length does an incoming req see
system.mem_ctrls.rdQLenPdf::16                      3                       # What read queue length does an incoming req see
system.mem_ctrls.rdQLenPdf::17                      4                       # What read queue length does an incoming req see
system.mem_ctrls.rdQLenPdf::18                      1                       # What read queue length does an incoming req see
system.mem_ctrls.rdQLenPdf::19                      0                       # What read queue length does an incoming req see
system.mem_ctrls.rdQLenPdf::20                      0                       # What read queue length does an incoming req see
system.mem_ctrls.rdQLenPdf::21                      0                       # What read queue length does an incoming req see
system.mem_ctrls.rdQLenPdf::22                      0                       # What read queue length does an incoming req see
system.mem_ctrls.rdQLenPdf::23                      0                       # What read queue length does an incoming req see
system.mem_ctrls.rdQLenPdf::24                      0                       # What read queue length does an incoming req see
system.mem_ctrls.rdQLenPdf::25                      0                       # What read queue length does an incoming req see
system.mem_ctrls.rdQLenPdf::26                      0                       # What read queue length does an incoming req see
system.mem_ctrls.rdQLenPdf::27                      0                       # What read queue length does an incoming req see
system.mem_ctrls.rdQLenPdf::28                      0                       # What read queue length does an incoming req see
system.mem_ctrls.rdQLenPdf::29                      0                       # What read queue length does an incoming req see
system.mem_ctrls.rdQLenPdf::30                      0                       # What read queue length does an incoming req see
system.mem_ctrls.rdQLenPdf::31                      0                       # What read queue length does an incoming req see
system.mem_ctrls.wrQLenPdf::0                       0                       # What write queue length does an incoming req see
system.mem_ctrls.wrQLenPdf::1                       0                       # What write queue length does an incoming req see
system.mem_ctrls.wrQLenPdf::2                       0                       # What write queue length does an incoming req see
system.mem_ctrls.wrQLenPdf::3                       0                       # What write queue length does an incoming req see
system.mem_ctrls.wrQLenPdf::4                       0                       # What write queue length does an incoming req see
system.mem_ctrls.wrQLenPdf::5                       0                       # What write queue length does an incoming req see
system.mem_ctrls.wrQLenPdf::6                       0                       # What write queue length does an incoming req see
system.mem_ctrls.wrQLenPdf::7                       0                       # What write queue length does an incoming req see
system.mem_ctrls.wrQLenPdf::8                       0                       # What write queue length does an incoming req see
system.mem_ctrls.wrQLenPdf::9                       0                       # What write queue length does an incoming req see
system.mem_ctrls.wrQLenPdf::10                      0                       # What write queue length does an incoming req see
system.mem_ctrls.wrQLenPdf::11                      0                       # What write queue length does an incoming req see
system.mem_ctrls.wrQLenPdf::12                      0                       # What write queue length does an incoming req see
system.mem_ctrls.wrQLenPdf::13                      0                       # What write queue length does an incoming req see
system.mem_ctrls.wrQLenPdf::14                      0                       # What write queue length does an incoming req see
system.mem_ctrls.wrQLenPdf::15                      0                       # What write queue length does an incoming req see
system.mem_ctrls.wrQLenPdf::16                      0                       # What write queue length does an incoming req see
system.mem_ctrls.wrQLenPdf::17                      0                       # What write queue length does an incoming req see
system.mem_ctrls.wrQLenPdf::18                      0                       # What write queue length does an incoming req see
system.mem_ctrls.wrQLenPdf::19                      0                       # What write queue length does an incoming req see
system.mem_ctrls.wrQLenPdf::20                      0                       # What write queue length does an incoming req see
system.mem_ctrls.wrQLenPdf::21                      0                       # What write queue length does an incoming req see
system.mem_ctrls.wrQLenPdf::22                      0                       # What write queue length does an incoming req see
system.mem_ctrls.wrQLenPdf::23                      0                       # What write queue length does an incoming req see
system.mem_ctrls.wrQLenPdf::24                      0                       # What write queue length does an incoming req see
system.mem_ctrls.wrQLenPdf::25                      0                       # What write queue length does an incoming req see
system.mem_ctrls.wrQLenPdf::26                      0                       # What write queue length does an incoming req see
system.mem_ctrls.wrQLenPdf::27                      0                       # What write queue length does an incoming req see
system.mem_ctrls.wrQLenPdf::28                      0                       # What write queue length does an incoming req see
system.mem_ctrls.wrQLenPdf::29                      0                       # What write queue length does an incoming req see
system.mem_ctrls.wrQLenPdf::30                      0                       # What write queue length does an incoming req see
system.mem_ctrls.wrQLenPdf::31                      0                       # What write queue length does an incoming req see
system.mem_ctrls.wrQLenPdf::32                      0                       # What write queue length does an incoming req see
system.mem_ctrls.wrQLenPdf::33                      0                       # What write queue length does an incoming req see
system.mem_ctrls.wrQLenPdf::34                      0                       # What write queue length does an incoming req see
system.mem_ctrls.wrQLenPdf::35                      0                       # What write queue length does an incoming req see
system.mem_ctrls.wrQLenPdf::36                      0                       # What write queue length does an incoming req see
system.mem_ctrls.wrQLenPdf::37                      0                       # What write queue length does an incoming req see
system.mem_ctrls.wrQLenPdf::38                      0                       # What write queue length does an incoming req see
system.mem_ctrls.wrQLenPdf::39                      0                       # What write queue length does an incoming req see
system.mem_ctrls.wrQLenPdf::40                      0                       # What write queue length does an incoming req see
system.mem_ctrls.wrQLenPdf::41                      0                       # What write queue length does an incoming req see
system.mem_ctrls.wrQLenPdf::42                      0                       # What write queue length does an incoming req see
system.mem_ctrls.wrQLenPdf::43                      0                       # What write queue length does an incoming req see
system.mem_ctrls.wrQLenPdf::44                      0                       # What write queue length does an incoming req see
system.mem_ctrls.wrQLenPdf::45                      0                       # What write queue length does an incoming req see
system.mem_ctrls.wrQLenPdf::46                      0                       # What write queue length does an incoming req see
system.mem_ctrls.wrQLenPdf::47                      0                       # What write queue length does an incoming req see
system.mem_ctrls.wrQLenPdf::48                      0                       # What write queue length does an incoming req see
system.mem_ctrls.wrQLenPdf::49                      0                       # What write queue length does an incoming req see
system.mem_ctrls.wrQLenPdf::50                      0                       # What write queue length does an incoming req see
system.mem_ctrls.wrQLenPdf::51                      0                       # What write queue length does an incoming req see
system.mem_ctrls.wrQLenPdf::52                      0                       # What write queue length does an incoming req see
system.mem_ctrls.wrQLenPdf::53                      0                       # What write queue length does an incoming req see
system.mem_ctrls.wrQLenPdf::54                      0                       # What write queue length does an incoming req see
system.mem_ctrls.wrQLenPdf::55                      0                       # What write queue length does an incoming req see
system.mem_ctrls.wrQLenPdf::56                      0                       # What write queue length does an incoming req see
system.mem_ctrls.wrQLenPdf::57                      0                       # What write queue length does an incoming req see
system.mem_ctrls.wrQLenPdf::58                      0                       # What write queue length does an incoming req see
system.mem_ctrls.wrQLenPdf::59                      0                       # What write queue length does an incoming req see
system.mem_ctrls.wrQLenPdf::60                      0                       # What write queue length does an incoming req see
system.mem_ctrls.wrQLenPdf::61                      0                       # What write queue length does an incoming req see
system.mem_ctrls.wrQLenPdf::62                      0                       # What write queue length does an incoming req see
system.mem_ctrls.wrQLenPdf::63                      0                       # What write queue length does an incoming req see
system.mem_ctrls.bytesPerActivate::samples         4270                       # Bytes accessed per row activation
system.mem_ctrls.bytesPerActivate::mean    210.540515                       # Bytes accessed per row activation
system.mem_ctrls.bytesPerActivate::gmean   125.327502                       # Bytes accessed per row activation
system.mem_ctrls.bytesPerActivate::stdev   272.461416                       # Bytes accessed per row activation
system.mem_ctrls.bytesPerActivate::0-127         2343     54.87%     54.87% # Bytes accessed per row activation
system.mem_ctrls.bytesPerActivate::128-255          976     22.86%     77.73% # Bytes accessed per row activation
system.mem_ctrls.bytesPerActivate::256-383          287      6.72%     84.45% # Bytes accessed per row activation
system.mem_ctrls.bytesPerActivate::384-511          138      3.23%     87.68% # Bytes accessed per row activation
system.mem_ctrls.bytesPerActivate::512-639           84      1.97%     89.65% # Bytes accessed per row activation
system.mem_ctrls.bytesPerActivate::640-767           60      1.41%     91.05% # Bytes accessed per row activation
system.mem_ctrls.bytesPerActivate::768-895           50      1.17%     92.22% # Bytes accessed per row activation
system.mem_ctrls.bytesPerActivate::896-1023           27      0.63%     92.86% # Bytes accessed per row activation
system.mem_ctrls.bytesPerActivate::1024-1151          305      7.14%    100.00% # Bytes accessed per row activation
system.mem_ctrls.bytesPerActivate::total         4270                       # Bytes accessed per row activation
system.mem_ctrls.totQLat                    401374912                       # Total ticks spent queuing
system.mem_ctrls.totMemAccLat               665224912                       # Total ticks spent from burst creation until serviced by the DRAM
system.mem_ctrls.totBusLat                   70360000                       # Total ticks spent in databus transfers
system.mem_ctrls.avgQLat                     28522.95                       # Average queueing delay per DRAM burst
system.mem_ctrls.avgBusLat                    5000.00                       # Average bus latency per DRAM burst
system.mem_ctrls.avgMemAccLat                47272.95                       # Average memory access latency per DRAM burst
system.mem_ctrls.avgRdBW                      3338.25                       # Average DRAM read bandwidth in MiByte/s
system.mem_ctrls.avgWrBW                         0.00                       # Average achieved write bandwidth in MiByte/s
system.mem_ctrls.avgRdBWSys                   3338.25                       # Average system read bandwidth in MiByte/s
system.mem_ctrls.avgWrBWSys                      0.00                       # Average system write bandwidth in MiByte/s
system.mem_ctrls.peakBW                      12800.00                       # Theoretical peak bandwidth in MiByte/s
system.mem_ctrls.busUtil                        26.08                       # Data bus utilization in percentage
system.mem_ctrls.busUtilRead                    26.08                       # Data bus utilization in percentage for reads
system.mem_ctrls.busUtilWrite                    0.00                       # Data bus utilization in percentage for writes
system.mem_ctrls.avgRdQLen                       3.59                       # Average read queue length when enqueuing
system.mem_ctrls.avgWrQLen                       0.00                       # Average write queue length when enqueuing
system.mem_ctrls.readRowHits                     9792                       # Number of row buffer hits during reads
system.mem_ctrls.writeRowHits                       0                       # Number of row buffer hits during writes
system.mem_ctrls.readRowHitRate                 69.58                       # Row buffer hit rate for reads
system.mem_ctrls.writeRowHitRate                  nan                       # Row buffer hit rate for writes
system.mem_ctrls.avgGap                      19167.07                       # Average gap between requests
system.mem_ctrls.pageHitRate                    69.58                       # Row buffer hit rate, read and write combined
system.mem_ctrls_0.actEnergy                 14287140                       # Energy for activate commands per rank (pJ)
system.mem_ctrls_0.preEnergy                  7574820                       # Energy for precharge commands per rank (pJ)
system.mem_ctrls_0.readEnergy                49408800                       # Energy for read commands per rank (pJ)
system.mem_ctrls_0.writeEnergy                      0                       # Energy for write commands per rank (pJ)
system.mem_ctrls_0.refreshEnergy         20897760.000000                       # Energy for refresh commands per rank (pJ)
system.mem_ctrls_0.actBackEnergy             71267670                       # Energy for active background per rank (pJ)
system.mem_ctrls_0.preBackEnergy               454560                       # Energy for precharge background per rank (pJ)
system.mem_ctrls_0.actPowerDownEnergy        49197270                       # Energy for active power-down per rank (pJ)
system.mem_ctrls_0.prePowerDownEnergy         1698720                       # Energy for precharge power-down per rank (pJ)
system.mem_ctrls_0.selfRefreshEnergy                0                       # Energy for self refresh per rank (pJ)
system.mem_ctrls_0.totalEnergy              214786740                       # Total energy per rank (pJ)
system.mem_ctrls_0.averagePower            796.140408                       # Core power per rank (mW)
system.mem_ctrls_0.totalIdleTime            112136772                       # Total Idle time Per DRAM Rank
system.mem_ctrls_0.memoryStateTime::IDLE       141250                       # Time in different power states
system.mem_ctrls_0.memoryStateTime::REF       8840000                       # Time in different power states
system.mem_ctrls_0.memoryStateTime::SREF            0                       # Time in different power states
system.mem_ctrls_0.memoryStateTime::PRE_PDN      4422000                       # Time in different power states
system.mem_ctrls_0.memoryStateTime::ACT     148513728                       # Time in different power states
system.mem_ctrls_0.memoryStateTime::ACT_PDN    107867522                       # Time in different power states
system.mem_ctrls_1.actEnergy                 16272060                       # Energy for activate commands per rank (pJ)
system.mem_ctrls_1.preEnergy                  8629830                       # Energy for precharge commands per rank (pJ)
system.mem_ctrls_1.readEnergy                51065280                       # Energy for read commands per rank (pJ)
system.mem_ctrls_1.writeEnergy                      0                       # Energy for write commands per rank (pJ)
system.mem_ctrls_1.refreshEnergy         20897760.000000                       # Energy for refresh commands per rank (pJ)
system.mem_ctrls_1.actBackEnergy             71821710                       # Energy for active background per rank (pJ)
system.mem_ctrls_1.preBackEnergy               453600                       # Energy for precharge background per rank (pJ)
system.mem_ctrls_1.actPowerDownEnergy        47982600                       # Energy for active power-down per rank (pJ)
system.mem_ctrls_1.prePowerDownEnergy         2256000                       # Energy for precharge power-down per rank (pJ)
system.mem_ctrls_1.selfRefreshEnergy                0                       # Energy for self refresh per rank (pJ)
system.mem_ctrls_1.totalEnergy              219378840                       # Total energy per rank (pJ)
system.mem_ctrls_1.averagePower            813.161740                       # Core power per rank (mW)
system.mem_ctrls_1.totalIdleTime            111080538                       # Total Idle time Per DRAM Rank
system.mem_ctrls_1.memoryStateTime::IDLE       168751                       # Time in different power states
system.mem_ctrls_1.memoryStateTime::REF       8840000                       # Time in different power states
system.mem_ctrls_1.memoryStateTime::SREF            0                       # Time in different power states
system.mem_ctrls_1.memoryStateTime::PRE_PDN      5871000                       # Time in different power states
system.mem_ctrls_1.memoryStateTime::ACT     149664961                       # Time in different power states
system.mem_ctrls_1.memoryStateTime::ACT_PDN    105239788                       # Time in different power states
system.pwrStateResidencyTicks::UNDEFINED    269784500                       # Cumulative time (in ticks) in various power states
system.cpu0.branchPred.lookups                 101660                       # Number of BP lookups
system.cpu0.branchPred.condPredicted           101660                       # Number of conditional branches predicted
system.cpu0.branchPred.condIncorrect             9073                       # Number of conditional branches incorrect
system.cpu0.branchPred.BTBLookups               79470                       # Number of BTB lookups
system.cpu0.branchPred.BTBHits                      0                       # Number of BTB hits
system.cpu0.branchPred.BTBCorrect                   0                       # Number of correct BTB predictions (this stat may not work properly.
system.cpu0.branchPred.BTBHitPct             0.000000                       # BTB Hit Percentage
system.cpu0.branchPred.usedRAS                   2799                       # Number of times the RAS was used to get a target.
system.cpu0.branchPred.RASInCorrect               537                       # Number of incorrect RAS predictions.
system.cpu0.branchPred.indirectLookups          79470                       # Number of indirect predictor lookups.
system.cpu0.branchPred.indirectHits             30391                       # Number of indirect target hits.
system.cpu0.branchPred.indirectMisses           49079                       # Number of indirect misses.
system.cpu0.branchPredindirectMispredicted         4924                       # Number of mispredicted indirect branches.
system.cpu_voltage_domain.voltage                   1                       # Voltage in Volts
system.cpu_clk_domain.clock                       500                       # Clock period in ticks
system.cpu0.dtb.walker.pwrStateResidencyTicks::UNDEFINED    269784500                       # Cumulative time (in ticks) in various power states
system.cpu0.apic_clk_domain.clock                8000                       # Clock period in ticks
system.cpu0.interrupts.pwrStateResidencyTicks::UNDEFINED    269784500                       # Cumulative time (in ticks) in various power states
system.cpu0.itb.walker.pwrStateResidencyTicks::UNDEFINED    269784500                       # Cumulative time (in ticks) in various power states
system.cpu0.workload.num_syscalls                  62                       # Number of system calls
system.cpu0.pwrStateResidencyTicks::ON      269784500                       # Cumulative time (in ticks) in various power states
system.cpu0.numCycles                          478573                       # number of cpu cycles simulated
system.cpu0.numWorkItemsStarted                     0                       # number of work items this cpu started
system.cpu0.numWorkItemsCompleted                   0                       # number of work items this cpu completed
system.cpu0.fetch.icacheStallCycles             82948                       # Number of cycles fetch is stalled on an Icache miss
system.cpu0.fetch.Insts                        454676                       # Number of instructions fetch has processed
system.cpu0.fetch.Branches                     101660                       # Number of branches that fetch encountered
system.cpu0.fetch.predictedBranches             33190                       # Number of branches that fetch has predicted taken
system.cpu0.fetch.Cycles                       289535                       # Number of cycles fetch has run and was not squashing or blocked
system.cpu0.fetch.SquashCycles                  18337                       # Number of cycles fetch has spent squashing
system.cpu0.fetch.MiscStallCycles                9817                       # Number of cycles fetch has spent waiting on interrupts, or bad addresses, or out of MSHRs
system.cpu0.fetch.NoActiveThreadStallCycles           10                       # Number of stall cycles due to no active thread to fetch from
system.cpu0.fetch.PendingTrapStallCycles          563                       # Number of stall cycles due to pending traps
system.cpu0.fetch.PendingQuiesceStallCycles          338                       # Number of stall cycles due to pending quiesce instructions
system.cpu0.fetch.IcacheWaitRetryStallCycles         6517                       # Number of stall cycles due to full MSHR
system.cpu0.fetch.CacheLines                    52805                       # Number of cache lines fetched
system.cpu0.fetch.IcacheSquashes                 2762                       # Number of outstanding Icache misses that were squashed
system.cpu0.fetch.rateDist::samples            398896                       # Number of instructions fetched each cycle (Total)
system.cpu0.fetch.rateDist::mean             2.149653                       # Number of instructions fetched each cycle (Total)
system.cpu0.fetch.rateDist::stdev            3.325375                       # Number of instructions fetched each cycle (Total)
system.cpu0.fetch.rateDist::underflows              0      0.00%      0.00% # Number of instructions fetched each cycle (Total)
system.cpu0.fetch.rateDist::0                  266711     66.86%     66.86% # Number of instructions fetched each cycle (Total)
system.cpu0.fetch.rateDist::1                    8473      2.12%     68.99% # Number of instructions fetched each cycle (Total)
system.cpu0.fetch.rateDist::2                    3899      0.98%     69.96% # Number of instructions fetched each cycle (Total)
system.cpu0.fetch.rateDist::3                    8865      2.22%     72.19% # Number of instructions fetched each cycle (Total)
system.cpu0.fetch.rateDist::4                    6543      1.64%     73.83% # Number of instructions fetched each cycle (Total)
system.cpu0.fetch.rateDist::5                    8536      2.14%     75.97% # Number of instructions fetched each cycle (Total)
system.cpu0.fetch.rateDist::6                    7251      1.82%     77.78% # Number of instructions fetched each cycle (Total)
system.cpu0.fetch.rateDist::7                    6680      1.67%     79.46% # Number of instructions fetched each cycle (Total)
system.cpu0.fetch.rateDist::8                   81938     20.54%    100.00% # Number of instructions fetched each cycle (Total)
system.cpu0.fetch.rateDist::overflows               0      0.00%    100.00% # Number of instructions fetched each cycle (Total)
system.cpu0.fetch.rateDist::min_value               0                       # Number of instructions fetched each cycle (Total)
system.cpu0.fetch.rateDist::max_value               8                       # Number of instructions fetched each cycle (Total)
system.cpu0.fetch.rateDist::total              398896                       # Number of instructions fetched each cycle (Total)
system.cpu0.fetch.branchRate                 0.212423                       # Number of branch fetches per cycle
system.cpu0.fetch.rate                       0.950066                       # Number of inst fetches per cycle
system.cpu0.decode.IdleCycles                   82717                       # Number of cycles decode is idle
system.cpu0.decode.BlockedCycles               198470                       # Number of cycles decode is blocked
system.cpu0.decode.RunCycles                    94706                       # Number of cycles decode is running
system.cpu0.decode.UnblockCycles                13825                       # Number of cycles decode is unblocking
system.cpu0.decode.SquashCycles                  9168                       # Number of cycles decode is squashing
system.cpu0.decode.DecodedInsts                771708                       # Number of instructions handled by decode
system.cpu0.rename.SquashCycles                  9168                       # Number of cycles rename is squashing
system.cpu0.rename.IdleCycles                   91137                       # Number of cycles rename is idle
system.cpu0.rename.BlockCycles                 147562                       # Number of cycles rename is blocking
system.cpu0.rename.serializeStallCycles          3845                       # count of cycles rename stalled for serializing inst
system.cpu0.rename.RunCycles                    97951                       # Number of cycles rename is running
system.cpu0.rename.UnblockCycles                49223                       # Number of cycles rename is unblocking
system.cpu0.rename.RenamedInsts                728572                       # Number of instructions processed by rename
system.cpu0.rename.ROBFullEvents                 2828                       # Number of times rename has blocked due to ROB full
system.cpu0.rename.IQFullEvents                 12374                       # Number of times rename has blocked due to IQ full
system.cpu0.rename.LQFullEvents                  1666                       # Number of times rename has blocked due to LQ full
system.cpu0.rename.SQFullEvents                 31209                       # Number of times rename has blocked due to SQ full
system.cpu0.rename.RenamedOperands             898990                       # Number of destination operands rename has renamed
system.cpu0.rename.RenameLookups              1859543                       # Number of register rename lookups that rename has made
system.cpu0.rename.int_rename_lookups         1068993                       # Number of integer rename lookups
system.cpu0.rename.fp_rename_lookups            21474                       # Number of floating rename lookups
system.cpu0.rename.CommittedMaps               377107                       # Number of HB maps that are committed
system.cpu0.rename.UndoneMaps                  521883                       # Number of HB maps that are undone due to squashing
system.cpu0.rename.serializingInsts               109                       # count of serializing insts renamed
system.cpu0.rename.tempSerializingInsts           114                       # count of temporary serializing insts renamed
system.cpu0.rename.skidInsts                    53081                       # count of insts added to the skid buffer
system.cpu0.memDep0.insertedLoads               88637                       # Number of loads inserted to the mem dependence unit.
system.cpu0.memDep0.insertedStores              24701                       # Number of stores inserted to the mem dependence unit.
system.cpu0.memDep0.conflictingLoads             1394                       # Number of conflicting loads.
system.cpu0.memDep0.conflictingStores             330                       # Number of conflicting stores.
system.cpu0.iq.iqInstsAdded                    649154                       # Number of instructions added to the IQ (excludes non-spec)
system.cpu0.iq.iqNonSpecInstsAdded                209                       # Number of non-speculative instructions added to the IQ
system.cpu0.iq.iqInstsIssued                   644300                       # Number of instructions issued
system.cpu0.iq.iqSquashedInstsIssued             6825                       # Number of squashed instructions issued
system.cpu0.iq.iqSquashedInstsExamined         345122                       # Number of squashed instructions iterated over during squash; mainly for profiling
system.cpu0.iq.iqSquashedOperandsExamined       518714                       # Number of squashed operands that are examined and possibly removed from graph
system.cpu0.iq.iqSquashedNonSpecRemoved           147                       # Number of squashed non-spec instructions that were removed
system.cpu0.iq.issued_per_cycle::samples       398896                       # Number of insts issued each cycle
system.cpu0.iq.issued_per_cycle::mean        1.615208                       # Number of insts issued each cycle
system.cpu0.iq.issued_per_cycle::stdev       2.445390                       # Number of insts issued each cycle
system.cpu0.iq.issued_per_cycle::underflows            0      0.00%      0.00% # Number of insts issued each cycle
system.cpu0.iq.issued_per_cycle::0             248693     62.35%     62.35% # Number of insts issued each cycle
system.cpu0.iq.issued_per_cycle::1              19144      4.80%     67.14% # Number of insts issued each cycle
system.cpu0.iq.issued_per_cycle::2              15826      3.97%     71.11% # Number of insts issued each cycle
system.cpu0.iq.issued_per_cycle::3              19374      4.86%     75.97% # Number of insts issued each cycle
system.cpu0.iq.issued_per_cycle::4              27441      6.88%     82.85% # Number of insts issued each cycle
system.cpu0.iq.issued_per_cycle::5              22672      5.68%     88.53% # Number of insts issued each cycle
system.cpu0.iq.issued_per_cycle::6              20640      5.17%     93.71% # Number of insts issued each cycle
system.cpu0.iq.issued_per_cycle::7              12430      3.12%     96.82% # Number of insts issued each cycle
system.cpu0.iq.issued_per_cycle::8              12676      3.18%    100.00% # Number of insts issued each cycle
system.cpu0.iq.issued_per_cycle::overflows            0      0.00%    100.00% # Number of insts issued each cycle
system.cpu0.iq.issued_per_cycle::min_value            0                       # Number of insts issued each cycle
system.cpu0.iq.issued_per_cycle::max_value            8                       # Number of insts issued each cycle
system.cpu0.iq.issued_per_cycle::total         398896                       # Number of insts issued each cycle
system.cpu0.iq.fu_full::No_OpClass                  0      0.00%      0.00% # attempts to use FU when none available
system.cpu0.iq.fu_full::IntAlu                   6337     27.16%     27.16% # attempts to use FU when none available
system.cpu0.iq.fu_full::IntMult                     0      0.00%     27.16% # attempts to use FU when none available
system.cpu0.iq.fu_full::IntDiv                      0      0.00%     27.16% # attempts to use FU when none available
system.cpu0.iq.fu_full::FloatAdd                   61      0.26%     27.42% # attempts to use FU when none available
system.cpu0.iq.fu_full::FloatCmp                    0      0.00%     27.42% # attempts to use FU when none available
system.cpu0.iq.fu_full::FloatCvt                    0      0.00%     27.42% # attempts to use FU when none available
system.cpu0.iq.fu_full::FloatMult                   0      0.00%     27.42% # attempts to use FU when none available
system.cpu0.iq.fu_full::FloatMultAcc                0      0.00%     27.42% # attempts to use FU when none available
system.cpu0.iq.fu_full::FloatDiv                    0      0.00%     27.42% # attempts to use FU when none available
system.cpu0.iq.fu_full::FloatMisc                   0      0.00%     27.42% # attempts to use FU when none available
system.cpu0.iq.fu_full::FloatSqrt                   0      0.00%     27.42% # attempts to use FU when none available
system.cpu0.iq.fu_full::SimdAdd                     0      0.00%     27.42% # attempts to use FU when none available
system.cpu0.iq.fu_full::SimdAddAcc                  0      0.00%     27.42% # attempts to use FU when none available
system.cpu0.iq.fu_full::SimdAlu                     0      0.00%     27.42% # attempts to use FU when none available
system.cpu0.iq.fu_full::SimdCmp                     0      0.00%     27.42% # attempts to use FU when none available
system.cpu0.iq.fu_full::SimdCvt                     0      0.00%     27.42% # attempts to use FU when none available
system.cpu0.iq.fu_full::SimdMisc                    0      0.00%     27.42% # attempts to use FU when none available
system.cpu0.iq.fu_full::SimdMult                    0      0.00%     27.42% # attempts to use FU when none available
system.cpu0.iq.fu_full::SimdMultAcc                 0      0.00%     27.42% # attempts to use FU when none available
system.cpu0.iq.fu_full::SimdShift                   0      0.00%     27.42% # attempts to use FU when none available
system.cpu0.iq.fu_full::SimdShiftAcc                0      0.00%     27.42% # attempts to use FU when none available
system.cpu0.iq.fu_full::SimdSqrt                    0      0.00%     27.42% # attempts to use FU when none available
system.cpu0.iq.fu_full::SimdFloatAdd                0      0.00%     27.42% # attempts to use FU when none available
system.cpu0.iq.fu_full::SimdFloatAlu                0      0.00%     27.42% # attempts to use FU when none available
system.cpu0.iq.fu_full::SimdFloatCmp                0      0.00%     27.42% # attempts to use FU when none available
system.cpu0.iq.fu_full::SimdFloatCvt                0      0.00%     27.42% # attempts to use FU when none available
system.cpu0.iq.fu_full::SimdFloatDiv                0      0.00%     27.42% # attempts to use FU when none available
system.cpu0.iq.fu_full::SimdFloatMisc               0      0.00%     27.42% # attempts to use FU when none available
system.cpu0.iq.fu_full::SimdFloatMult               0      0.00%     27.42% # attempts to use FU when none available
system.cpu0.iq.fu_full::SimdFloatMultAcc            0      0.00%     27.42% # attempts to use FU when none available
system.cpu0.iq.fu_full::SimdFloatSqrt               0      0.00%     27.42% # attempts to use FU when none available
system.cpu0.iq.fu_full::MemRead                 16009     68.60%     96.02% # attempts to use FU when none available
system.cpu0.iq.fu_full::MemWrite                  740      3.17%     99.19% # attempts to use FU when none available
system.cpu0.iq.fu_full::FloatMemRead              115      0.49%     99.68% # attempts to use FU when none available
system.cpu0.iq.fu_full::FloatMemWrite              74      0.32%    100.00% # attempts to use FU when none available
system.cpu0.iq.fu_full::IprAccess                   0      0.00%    100.00% # attempts to use FU when none available
system.cpu0.iq.fu_full::InstPrefetch                0      0.00%    100.00% # attempts to use FU when none available
system.cpu0.iq.FU_type_0::No_OpClass             4658      0.72%      0.72% # Type of FU issued
system.cpu0.iq.FU_type_0::IntAlu               425542     66.05%     66.77% # Type of FU issued
system.cpu0.iq.FU_type_0::IntMult                  79      0.01%     66.78% # Type of FU issued
system.cpu0.iq.FU_type_0::IntDiv                 1346      0.21%     66.99% # Type of FU issued
system.cpu0.iq.FU_type_0::FloatAdd               5368      0.83%     67.82% # Type of FU issued
system.cpu0.iq.FU_type_0::FloatCmp                  0      0.00%     67.82% # Type of FU issued
system.cpu0.iq.FU_type_0::FloatCvt                  0      0.00%     67.82% # Type of FU issued
system.cpu0.iq.FU_type_0::FloatMult                 0      0.00%     67.82% # Type of FU issued
system.cpu0.iq.FU_type_0::FloatMultAcc              0      0.00%     67.82% # Type of FU issued
system.cpu0.iq.FU_type_0::FloatDiv                  0      0.00%     67.82% # Type of FU issued
system.cpu0.iq.FU_type_0::FloatMisc                 0      0.00%     67.82% # Type of FU issued
system.cpu0.iq.FU_type_0::FloatSqrt                 0      0.00%     67.82% # Type of FU issued
system.cpu0.iq.FU_type_0::SimdAdd                   0      0.00%     67.82% # Type of FU issued
system.cpu0.iq.FU_type_0::SimdAddAcc                0      0.00%     67.82% # Type of FU issued
system.cpu0.iq.FU_type_0::SimdAlu                   0      0.00%     67.82% # Type of FU issued
system.cpu0.iq.FU_type_0::SimdCmp                   0      0.00%     67.82% # Type of FU issued
system.cpu0.iq.FU_type_0::SimdCvt                   0      0.00%     67.82% # Type of FU issued
system.cpu0.iq.FU_type_0::SimdMisc                  0      0.00%     67.82% # Type of FU issued
system.cpu0.iq.FU_type_0::SimdMult                  0      0.00%     67.82% # Type of FU issued
system.cpu0.iq.FU_type_0::SimdMultAcc               0      0.00%     67.82% # Type of FU issued
system.cpu0.iq.FU_type_0::SimdShift                 0      0.00%     67.82% # Type of FU issued
system.cpu0.iq.FU_type_0::SimdShiftAcc              0      0.00%     67.82% # Type of FU issued
system.cpu0.iq.FU_type_0::SimdSqrt                  0      0.00%     67.82% # Type of FU issued
system.cpu0.iq.FU_type_0::SimdFloatAdd              0      0.00%     67.82% # Type of FU issued
system.cpu0.iq.FU_type_0::SimdFloatAlu              0      0.00%     67.82% # Type of FU issued
system.cpu0.iq.FU_type_0::SimdFloatCmp              0      0.00%     67.82% # Type of FU issued
system.cpu0.iq.FU_type_0::SimdFloatCvt              0      0.00%     67.82% # Type of FU issued
system.cpu0.iq.FU_type_0::SimdFloatDiv              0      0.00%     67.82% # Type of FU issued
system.cpu0.iq.FU_type_0::SimdFloatMisc             0      0.00%     67.82% # Type of FU issued
system.cpu0.iq.FU_type_0::SimdFloatMult             0      0.00%     67.82% # Type of FU issued
system.cpu0.iq.FU_type_0::SimdFloatMultAcc            0      0.00%     67.82% # Type of FU issued
system.cpu0.iq.FU_type_0::SimdFloatSqrt             0      0.00%     67.82% # Type of FU issued
system.cpu0.iq.FU_type_0::MemRead              183526     28.48%     96.31% # Type of FU issued
system.cpu0.iq.FU_type_0::MemWrite              19167      2.97%     99.28% # Type of FU issued
system.cpu0.iq.FU_type_0::FloatMemRead           4107      0.64%     99.92% # Type of FU issued
system.cpu0.iq.FU_type_0::FloatMemWrite           507      0.08%    100.00% # Type of FU issued
system.cpu0.iq.FU_type_0::IprAccess                 0      0.00%    100.00% # Type of FU issued
system.cpu0.iq.FU_type_0::InstPrefetch              0      0.00%    100.00% # Type of FU issued
system.cpu0.iq.FU_type_0::total                644300                       # Type of FU issued
system.cpu0.iq.rate                          1.346294                       # Inst issue rate
system.cpu0.iq.fu_busy_cnt                      23336                       # FU busy when requested
system.cpu0.iq.fu_busy_rate                  0.036219                       # FU busy rate (busy events/executed inst)
system.cpu0.iq.int_inst_queue_reads           1696593                       # Number of integer instruction queue reads
system.cpu0.iq.int_inst_queue_writes           975726                       # Number of integer instruction queue writes
system.cpu0.iq.int_inst_queue_wakeup_accesses       492415                       # Number of integer instruction queue wakeup accesses
system.cpu0.iq.fp_inst_queue_reads              21064                       # Number of floating instruction queue reads
system.cpu0.iq.fp_inst_queue_writes             18834                       # Number of floating instruction queue writes
system.cpu0.iq.fp_inst_queue_wakeup_accesses         7633                       # Number of floating instruction queue wakeup accesses
system.cpu0.iq.int_alu_accesses                652482                       # Number of integer alu accesses
system.cpu0.iq.fp_alu_accesses                  10496                       # Number of floating point alu accesses
system.cpu0.iew.lsq.thread0.forwLoads            3168                       # Number of loads that had data forwarded from stores
system.cpu0.iew.lsq.thread0.invAddrLoads            0                       # Number of loads ignored due to an invalid address
system.cpu0.iew.lsq.thread0.squashedLoads        47333                       # Number of loads squashed
system.cpu0.iew.lsq.thread0.ignoredResponses           28                       # Number of memory responses ignored because the instruction is squashed
system.cpu0.iew.lsq.thread0.memOrderViolation           90                       # Number of memory ordering violations
system.cpu0.iew.lsq.thread0.squashedStores        10891                       # Number of stores squashed
system.cpu0.iew.lsq.thread0.invAddrSwpfs            0                       # Number of software prefetches ignored due to an invalid address
system.cpu0.iew.lsq.thread0.blockedLoads            0                       # Number of blocked loads due to partial load-store forwarding
system.cpu0.iew.lsq.thread0.rescheduledLoads           19                       # Number of loads that were rescheduled
system.cpu0.iew.lsq.thread0.cacheBlocked       112755                       # Number of times an access to memory failed due to the cache being blocked
system.cpu0.iew.iewIdleCycles                       0                       # Number of cycles IEW is idle
system.cpu0.iew.iewSquashCycles                  9168                       # Number of cycles IEW is squashing
system.cpu0.iew.iewBlockCycles                 110697                       # Number of cycles IEW is blocking
system.cpu0.iew.iewUnblockCycles                 4920                       # Number of cycles IEW is unblocking
system.cpu0.iew.iewDispatchedInsts             649363                       # Number of instructions dispatched to IQ
system.cpu0.iew.iewDispSquashedInsts             2223                       # Number of squashed instructions skipped by dispatch
system.cpu0.iew.iewDispLoadInsts                88637                       # Number of dispatched load instructions
system.cpu0.iew.iewDispStoreInsts               24701                       # Number of dispatched store instructions
system.cpu0.iew.iewDispNonSpecInsts               135                       # Number of dispatched non-speculative instructions
system.cpu0.iew.iewIQFullEvents                   579                       # Number of times the IQ has become full, causing a stall
system.cpu0.iew.iewLSQFullEvents                 4003                       # Number of times the LSQ has become full, causing a stall
system.cpu0.iew.memOrderViolationEvents            90                       # Number of memory order violations
system.cpu0.iew.predictedTakenIncorrect          2061                       # Number of branches that were predicted taken incorrectly
system.cpu0.iew.predictedNotTakenIncorrect         9505                       # Number of branches that were predicted not taken incorrectly
system.cpu0.iew.branchMispredicts               11566                       # Number of branch mispredicts detected at execute
system.cpu0.iew.iewExecutedInsts               622548                       # Number of executed instructions
system.cpu0.iew.iewExecLoadInsts               181348                       # Number of load instructions executed
system.cpu0.iew.iewExecSquashedInsts            21752                       # Number of squashed instructions skipped in execute
system.cpu0.iew.exec_swp                            0                       # number of swp insts executed
system.cpu0.iew.exec_nop                            0                       # number of nop insts executed
system.cpu0.iew.exec_refs                      199956                       # number of memory reference insts executed
system.cpu0.iew.exec_branches                   49076                       # Number of branches executed
system.cpu0.iew.exec_stores                     18608                       # Number of stores executed
system.cpu0.iew.exec_rate                    1.300842                       # Inst execution rate
system.cpu0.iew.wb_sent                        505253                       # cumulative count of insts sent to commit
system.cpu0.iew.wb_count                       500048                       # cumulative count of insts written-back
system.cpu0.iew.wb_producers                   391643                       # num instructions producing a value
system.cpu0.iew.wb_consumers                   629049                       # num instructions consuming a value
system.cpu0.iew.wb_rate                      1.044873                       # insts written-back per cycle
system.cpu0.iew.wb_fanout                    0.622595                       # average fanout of values written-back
system.cpu0.commit.commitSquashedInsts         345167                       # The number of squashed insts skipped by commit
system.cpu0.commit.commitNonSpecStalls             62                       # The number of times commit has been forced to stall to communicate backwards
system.cpu0.commit.branchMispredicts             9105                       # The number of times a branch was mispredicted
system.cpu0.commit.committed_per_cycle::samples       346748                       # Number of insts commited each cycle
system.cpu0.commit.committed_per_cycle::mean     0.877412                       # Number of insts commited each cycle
system.cpu0.commit.committed_per_cycle::stdev     1.994159                       # Number of insts commited each cycle
system.cpu0.commit.committed_per_cycle::underflows            0      0.00%      0.00% # Number of insts commited each cycle
system.cpu0.commit.committed_per_cycle::0       263675     76.04%     76.04% # Number of insts commited each cycle
system.cpu0.commit.committed_per_cycle::1        22492      6.49%     82.53% # Number of insts commited each cycle
system.cpu0.commit.committed_per_cycle::2        10640      3.07%     85.60% # Number of insts commited each cycle
system.cpu0.commit.committed_per_cycle::3        16162      4.66%     90.26% # Number of insts commited each cycle
system.cpu0.commit.committed_per_cycle::4         9330      2.69%     92.95% # Number of insts commited each cycle
system.cpu0.commit.committed_per_cycle::5         5273      1.52%     94.47% # Number of insts commited each cycle
system.cpu0.commit.committed_per_cycle::6         1807      0.52%     94.99% # Number of insts commited each cycle
system.cpu0.commit.committed_per_cycle::7         1496      0.43%     95.42% # Number of insts commited each cycle
system.cpu0.commit.committed_per_cycle::8        15873      4.58%    100.00% # Number of insts commited each cycle
system.cpu0.commit.committed_per_cycle::overflows            0      0.00%    100.00% # Number of insts commited each cycle
system.cpu0.commit.committed_per_cycle::min_value            0                       # Number of insts commited each cycle
system.cpu0.commit.committed_per_cycle::max_value            8                       # Number of insts commited each cycle
system.cpu0.commit.committed_per_cycle::total       346748                       # Number of insts commited each cycle
system.cpu0.commit.committedInsts              161984                       # Number of instructions committed
system.cpu0.commit.committedOps                304241                       # Number of ops (including micro ops) committed
system.cpu0.commit.swp_count                        0                       # Number of s/w prefetches committed
system.cpu0.commit.refs                         55114                       # Number of memory references committed
system.cpu0.commit.loads                        41304                       # Number of loads committed
system.cpu0.commit.membars                          0                       # Number of memory barriers committed
system.cpu0.commit.branches                     35273                       # Number of branches committed
system.cpu0.commit.fp_insts                      4726                       # Number of committed floating point instructions.
system.cpu0.commit.int_insts                   299817                       # Number of committed integer instructions.
system.cpu0.commit.function_calls                 989                       # Number of function calls committed.
system.cpu0.commit.op_class_0::No_OpClass         1503      0.49%      0.49% # Class of committed instruction
system.cpu0.commit.op_class_0::IntAlu          243084     79.90%     80.39% # Class of committed instruction
system.cpu0.commit.op_class_0::IntMult             61      0.02%     80.41% # Class of committed instruction
system.cpu0.commit.op_class_0::IntDiv            1300      0.43%     80.84% # Class of committed instruction
system.cpu0.commit.op_class_0::FloatAdd          3179      1.04%     81.88% # Class of committed instruction
system.cpu0.commit.op_class_0::FloatCmp             0      0.00%     81.88% # Class of committed instruction
system.cpu0.commit.op_class_0::FloatCvt             0      0.00%     81.88% # Class of committed instruction
system.cpu0.commit.op_class_0::FloatMult            0      0.00%     81.88% # Class of committed instruction
system.cpu0.commit.op_class_0::FloatMultAcc            0      0.00%     81.88% # Class of committed instruction
system.cpu0.commit.op_class_0::FloatDiv             0      0.00%     81.88% # Class of committed instruction
system.cpu0.commit.op_class_0::FloatMisc            0      0.00%     81.88% # Class of committed instruction
system.cpu0.commit.op_class_0::FloatSqrt            0      0.00%     81.88% # Class of committed instruction
system.cpu0.commit.op_class_0::SimdAdd              0      0.00%     81.88% # Class of committed instruction
system.cpu0.commit.op_class_0::SimdAddAcc            0      0.00%     81.88% # Class of committed instruction
system.cpu0.commit.op_class_0::SimdAlu              0      0.00%     81.88% # Class of committed instruction
system.cpu0.commit.op_class_0::SimdCmp              0      0.00%     81.88% # Class of committed instruction
system.cpu0.commit.op_class_0::SimdCvt              0      0.00%     81.88% # Class of committed instruction
system.cpu0.commit.op_class_0::SimdMisc             0      0.00%     81.88% # Class of committed instruction
system.cpu0.commit.op_class_0::SimdMult             0      0.00%     81.88% # Class of committed instruction
system.cpu0.commit.op_class_0::SimdMultAcc            0      0.00%     81.88% # Class of committed instruction
system.cpu0.commit.op_class_0::SimdShift            0      0.00%     81.88% # Class of committed instruction
system.cpu0.commit.op_class_0::SimdShiftAcc            0      0.00%     81.88% # Class of committed instruction
system.cpu0.commit.op_class_0::SimdSqrt             0      0.00%     81.88% # Class of committed instruction
system.cpu0.commit.op_class_0::SimdFloatAdd            0      0.00%     81.88% # Class of committed instruction
system.cpu0.commit.op_class_0::SimdFloatAlu            0      0.00%     81.88% # Class of committed instruction
system.cpu0.commit.op_class_0::SimdFloatCmp            0      0.00%     81.88% # Class of committed instruction
system.cpu0.commit.op_class_0::SimdFloatCvt            0      0.00%     81.88% # Class of committed instruction
system.cpu0.commit.op_class_0::SimdFloatDiv            0      0.00%     81.88% # Class of committed instruction
system.cpu0.commit.op_class_0::SimdFloatMisc            0      0.00%     81.88% # Class of committed instruction
system.cpu0.commit.op_class_0::SimdFloatMult            0      0.00%     81.88% # Class of committed instruction
system.cpu0.commit.op_class_0::SimdFloatMultAcc            0      0.00%     81.88% # Class of committed instruction
system.cpu0.commit.op_class_0::SimdFloatSqrt            0      0.00%     81.88% # Class of committed instruction
system.cpu0.commit.op_class_0::MemRead          40342     13.26%     95.14% # Class of committed instruction
system.cpu0.commit.op_class_0::MemWrite         13410      4.41%     99.55% # Class of committed instruction
system.cpu0.commit.op_class_0::FloatMemRead          962      0.32%     99.87% # Class of committed instruction
system.cpu0.commit.op_class_0::FloatMemWrite          400      0.13%    100.00% # Class of committed instruction
system.cpu0.commit.op_class_0::IprAccess            0      0.00%    100.00% # Class of committed instruction
system.cpu0.commit.op_class_0::InstPrefetch            0      0.00%    100.00% # Class of committed instruction
system.cpu0.commit.op_class_0::total           304241                       # Class of committed instruction
system.cpu0.commit.bw_lim_events                15873                       # number cycles where commit BW limit reached
system.cpu0.rob.rob_reads                      980270                       # The number of ROB reads
system.cpu0.rob.rob_writes                    1351626                       # The number of ROB writes
system.cpu0.timesIdled                            824                       # Number of times that the entire CPU went into an idle state and unscheduled itself
system.cpu0.idleCycles                          79677                       # Total number of cycles that the CPU has spent unscheduled due to idling
system.cpu0.committedInsts                     161984                       # Number of Instructions Simulated
system.cpu0.committedOps                       304241                       # Number of Ops (including micro ops) Simulated
system.cpu0.cpi                              2.954446                       # CPI: Cycles Per Instruction
system.cpu0.cpi_total                        2.954446                       # CPI: Total CPI of All Threads
system.cpu0.ipc                              0.338473                       # IPC: Instructions Per Cycle
system.cpu0.ipc_total                        0.338473                       # IPC: Total IPC of All Threads
system.cpu0.int_regfile_reads                  904058                       # number of integer regfile reads
system.cpu0.int_regfile_writes                 427196                       # number of integer regfile writes
system.cpu0.fp_regfile_reads                    11698                       # number of floating regfile reads
system.cpu0.fp_regfile_writes                    6656                       # number of floating regfile writes
system.cpu0.cc_regfile_reads                   259072                       # number of cc regfile reads
system.cpu0.cc_regfile_writes                  172705                       # number of cc regfile writes
system.cpu0.misc_regfile_reads                 321758                       # number of misc regfile reads
system.cpu1.branchPred.lookups                 109479                       # Number of BP lookups
system.cpu1.branchPred.condPredicted           109479                       # Number of conditional branches predicted
system.cpu1.branchPred.condIncorrect             9480                       # Number of conditional branches incorrect
system.cpu1.branchPred.BTBLookups               85862                       # Number of BTB lookups
system.cpu1.branchPred.BTBHits                      0                       # Number of BTB hits
system.cpu1.branchPred.BTBCorrect                   0                       # Number of correct BTB predictions (this stat may not work properly.
system.cpu1.branchPred.BTBHitPct             0.000000                       # BTB Hit Percentage
system.cpu1.branchPred.usedRAS                   3561                       # Number of times the RAS was used to get a target.
system.cpu1.branchPred.RASInCorrect               592                       # Number of incorrect RAS predictions.
system.cpu1.branchPred.indirectLookups          85862                       # Number of indirect predictor lookups.
system.cpu1.branchPred.indirectHits             33166                       # Number of indirect target hits.
system.cpu1.branchPred.indirectMisses           52696                       # Number of indirect misses.
system.cpu1.branchPredindirectMispredicted         5221                       # Number of mispredicted indirect branches.
system.cpu1.dtb.walker.pwrStateResidencyTicks::UNDEFINED    269784500                       # Cumulative time (in ticks) in various power states
system.cpu1.apic_clk_domain.clock                8000                       # Clock period in ticks
system.cpu1.interrupts.pwrStateResidencyTicks::UNDEFINED    269784500                       # Cumulative time (in ticks) in various power states
system.cpu1.itb.walker.pwrStateResidencyTicks::UNDEFINED    269784500                       # Cumulative time (in ticks) in various power states
system.cpu1.workload.num_syscalls                 316                       # Number of system calls
system.cpu1.pwrStateResidencyTicks::ON      269784500                       # Cumulative time (in ticks) in various power states
system.cpu1.numCycles                          516343                       # number of cpu cycles simulated
system.cpu1.numWorkItemsStarted                     0                       # number of work items this cpu started
system.cpu1.numWorkItemsCompleted                   0                       # number of work items this cpu completed
system.cpu1.fetch.icacheStallCycles             90296                       # Number of cycles fetch is stalled on an Icache miss
system.cpu1.fetch.Insts                        487672                       # Number of instructions fetch has processed
system.cpu1.fetch.Branches                     109479                       # Number of branches that fetch encountered
system.cpu1.fetch.predictedBranches             36727                       # Number of branches that fetch has predicted taken
system.cpu1.fetch.Cycles                       317056                       # Number of cycles fetch has run and was not squashing or blocked
system.cpu1.fetch.SquashCycles                  19131                       # Number of cycles fetch has spent squashing
system.cpu1.fetch.MiscStallCycles               10993                       # Number of cycles fetch has spent waiting on interrupts, or bad addresses, or out of MSHRs
system.cpu1.fetch.NoActiveThreadStallCycles           10                       # Number of stall cycles due to no active thread to fetch from
system.cpu1.fetch.PendingTrapStallCycles          374                       # Number of stall cycles due to pending traps
system.cpu1.fetch.PendingQuiesceStallCycles           42                       # Number of stall cycles due to pending quiesce instructions
system.cpu1.fetch.IcacheWaitRetryStallCycles         6083                       # Number of stall cycles due to full MSHR
system.cpu1.fetch.CacheLines                    59583                       # Number of cache lines fetched
system.cpu1.fetch.IcacheSquashes                 2879                       # Number of outstanding Icache misses that were squashed
system.cpu1.fetch.rateDist::samples            434419                       # Number of instructions fetched each cycle (Total)
system.cpu1.fetch.rateDist::mean             2.120135                       # Number of instructions fetched each cycle (Total)
system.cpu1.fetch.rateDist::stdev            3.301510                       # Number of instructions fetched each cycle (Total)
system.cpu1.fetch.rateDist::underflows              0      0.00%      0.00% # Number of instructions fetched each cycle (Total)
system.cpu1.fetch.rateDist::0                  291312     67.06%     67.06% # Number of instructions fetched each cycle (Total)
system.cpu1.fetch.rateDist::1                    9358      2.15%     69.21% # Number of instructions fetched each cycle (Total)
system.cpu1.fetch.rateDist::2                    4775      1.10%     70.31% # Number of instructions fetched each cycle (Total)
system.cpu1.fetch.rateDist::3                    9567      2.20%     72.51% # Number of instructions fetched each cycle (Total)
system.cpu1.fetch.rateDist::4                    7007      1.61%     74.13% # Number of instructions fetched each cycle (Total)
system.cpu1.fetch.rateDist::5                    9383      2.16%     76.29% # Number of instructions fetched each cycle (Total)
system.cpu1.fetch.rateDist::6                    9212      2.12%     78.41% # Number of instructions fetched each cycle (Total)
system.cpu1.fetch.rateDist::7                    7237      1.67%     80.07% # Number of instructions fetched each cycle (Total)
system.cpu1.fetch.rateDist::8                   86568     19.93%    100.00% # Number of instructions fetched each cycle (Total)
system.cpu1.fetch.rateDist::overflows               0      0.00%    100.00% # Number of instructions fetched each cycle (Total)
system.cpu1.fetch.rateDist::min_value               0                       # Number of instructions fetched each cycle (Total)
system.cpu1.fetch.rateDist::max_value               8                       # Number of instructions fetched each cycle (Total)
system.cpu1.fetch.rateDist::total              434419                       # Number of instructions fetched each cycle (Total)
system.cpu1.fetch.branchRate                 0.212028                       # Number of branch fetches per cycle
system.cpu1.fetch.rate                       0.944473                       # Number of inst fetches per cycle
system.cpu1.decode.IdleCycles                   87827                       # Number of cycles decode is idle
system.cpu1.decode.BlockedCycles               219556                       # Number of cycles decode is blocked
system.cpu1.decode.RunCycles                   102767                       # Number of cycles decode is running
system.cpu1.decode.UnblockCycles                14694                       # Number of cycles decode is unblocking
system.cpu1.decode.SquashCycles                  9565                       # Number of cycles decode is squashing
system.cpu1.decode.DecodedInsts                831936                       # Number of instructions handled by decode
system.cpu1.rename.SquashCycles                  9565                       # Number of cycles rename is squashing
system.cpu1.rename.IdleCycles                   96955                       # Number of cycles rename is idle
system.cpu1.rename.BlockCycles                 156279                       # Number of cycles rename is blocking
system.cpu1.rename.serializeStallCycles         19835                       # count of cycles rename stalled for serializing inst
system.cpu1.rename.RunCycles                   106032                       # Number of cycles rename is running
system.cpu1.rename.UnblockCycles                45743                       # Number of cycles rename is unblocking
system.cpu1.rename.RenamedInsts                785727                       # Number of instructions processed by rename
system.cpu1.rename.ROBFullEvents                 3226                       # Number of times rename has blocked due to ROB full
system.cpu1.rename.IQFullEvents                 12703                       # Number of times rename has blocked due to IQ full
system.cpu1.rename.LQFullEvents                  1132                       # Number of times rename has blocked due to LQ full
system.cpu1.rename.SQFullEvents                 27042                       # Number of times rename has blocked due to SQ full
system.cpu1.rename.RenamedOperands             960511                       # Number of destination operands rename has renamed
system.cpu1.rename.RenameLookups              2006838                       # Number of register rename lookups that rename has made
system.cpu1.rename.int_rename_lookups         1154420                       # Number of integer rename lookups
system.cpu1.rename.fp_rename_lookups            22448                       # Number of floating rename lookups
system.cpu1.rename.CommittedMaps               420851                       # Number of HB maps that are committed
system.cpu1.rename.UndoneMaps                  539660                       # Number of HB maps that are undone due to squashing
system.cpu1.rename.serializingInsts               391                       # count of serializing insts renamed
system.cpu1.rename.tempSerializingInsts           401                       # count of temporary serializing insts renamed
system.cpu1.rename.skidInsts                    57611                       # count of insts added to the skid buffer
system.cpu1.memDep0.insertedLoads               95097                       # Number of loads inserted to the mem dependence unit.
system.cpu1.memDep0.insertedStores              29299                       # Number of stores inserted to the mem dependence unit.
system.cpu1.memDep0.conflictingLoads             1792                       # Number of conflicting loads.
system.cpu1.memDep0.conflictingStores             539                       # Number of conflicting stores.
system.cpu1.iq.iqInstsAdded                    702611                       # Number of instructions added to the IQ (excludes non-spec)
system.cpu1.iq.iqNonSpecInstsAdded                512                       # Number of non-speculative instructions added to the IQ
system.cpu1.iq.iqInstsIssued                   697868                       # Number of instructions issued
system.cpu1.iq.iqSquashedInstsIssued             7306                       # Number of squashed instructions issued
system.cpu1.iq.iqSquashedInstsExamined         358252                       # Number of squashed instructions iterated over during squash; mainly for profiling
system.cpu1.iq.iqSquashedOperandsExamined       539005                       # Number of squashed operands that are examined and possibly removed from graph
system.cpu1.iq.iqSquashedNonSpecRemoved           196                       # Number of squashed non-spec instructions that were removed
system.cpu1.iq.issued_per_cycle::samples       434419                       # Number of insts issued each cycle
system.cpu1.iq.issued_per_cycle::mean        1.606440                       # Number of insts issued each cycle
system.cpu1.iq.issued_per_cycle::stdev       2.435821                       # Number of insts issued each cycle
system.cpu1.iq.issued_per_cycle::underflows            0      0.00%      0.00% # Number of insts issued each cycle
system.cpu1.iq.issued_per_cycle::0             270739     62.32%     62.32% # Number of insts issued each cycle
system.cpu1.iq.issued_per_cycle::1              21272      4.90%     67.22% # Number of insts issued each cycle
system.cpu1.iq.issued_per_cycle::2              17710      4.08%     71.30% # Number of insts issued each cycle
system.cpu1.iq.issued_per_cycle::3              21090      4.85%     76.15% # Number of insts issued each cycle
system.cpu1.iq.issued_per_cycle::4              29908      6.88%     83.03% # Number of insts issued each cycle
[...]
system.ruby.L1Cache_Controller.Data_All_Tokens::total        14448                      
system.ruby.L1Cache_Controller.Ack       |           0      0.00%      0.00% |           0      0.00%      0.00% |           0      0.00%      0.00% |           0      0.00%      0.00% |           4    100.00%    100.00%
system.ruby.L1Cache_Controller.Ack::total            4                      
system.ruby.L1Cache_Controller.Transient_Local_GETX |        1643     18.79%     18.79% |        1632     18.66%     37.45% |        1642     18.78%     56.23% |        1645     18.81%     75.05% |        2182     24.95%    100.00%
system.ruby.L1Cache_Controller.Transient_Local_GETX::total         8744                      
system.ruby.L1Cache_Controller.Transient_Local_GETS |       10875     18.67%     18.67% |       10893     18.70%     37.38% |       10955     18.81%     56.19% |       10961     18.82%     75.01% |       14552     24.99%    100.00%
system.ruby.L1Cache_Controller.Transient_Local_GETS::total        58236                      
system.ruby.L1Cache_Controller.Transient_Local_GETS_Last_Token |           1     25.00%     25.00% |           1     25.00%     50.00% |           1     25.00%     75.00% |           1     25.00%    100.00% |           0      0.00%    100.00%
system.ruby.L1Cache_Controller.Transient_Local_GETS_Last_Token::total            4                      
system.ruby.L1Cache_Controller.Persistent_GETX |         114     18.51%     18.51% |         123     19.97%     38.47% |         122     19.81%     58.28% |         103     16.72%     75.00% |         154     25.00%    100.00%
system.ruby.L1Cache_Controller.Persistent_GETX::total          616                      
system.ruby.L1Cache_Controller.Persistent_GETS |         525     19.27%     19.27% |         505     18.54%     37.81% |         492     18.06%     55.87% |         521     19.13%     75.00% |         681     25.00%    100.00%
system.ruby.L1Cache_Controller.Persistent_GETS::total         2724                      
system.ruby.L1Cache_Controller.Own_Lock_or_Unlock |        1031     20.58%     20.58% |        1042     20.80%     41.38% |        1056     21.08%     62.46% |        1046     20.88%     83.33% |         835     16.67%    100.00%
system.ruby.L1Cache_Controller.Own_Lock_or_Unlock::total         5010                      
system.ruby.L1Cache_Controller.Request_Timeout |        1138     24.97%     24.97% |         963     21.13%     46.09% |        1199     26.31%     72.40% |        1258     27.60%    100.00% |           0      0.00%    100.00%
system.ruby.L1Cache_Controller.Request_Timeout::total         4558                      
system.ruby.L1Cache_Controller.Use_TimeoutNoStarvers |        3605     24.95%     24.95% |        3618     25.04%     50.00% |        3608     24.97%     74.97% |        3608     24.97%     99.94% |           8      0.06%    100.00%
system.ruby.L1Cache_Controller.Use_TimeoutNoStarvers::total        14447                      
system.ruby.L1Cache_Controller.NP.Load   |        2350     25.55%     25.55% |        2303     25.04%     50.58% |        2291     24.90%     75.49% |        2247     24.43%     99.91% |           8      0.09%    100.00%
system.ruby.L1Cache_Controller.NP.Load::total         9199                      
system.ruby.L1Cache_Controller.NP.Ifetch |        1333     24.90%     24.90% |        1361     25.42%     50.32% |        1311     24.49%     74.80% |        1349     25.20%    100.00% |           0      0.00%    100.00%
system.ruby.L1Cache_Controller.NP.Ifetch::total         5354                      
system.ruby.L1Cache_Controller.NP.Store  |         501     24.91%     24.91% |         507     25.21%     50.12% |         503     25.01%     75.14% |         500     24.86%    100.00% |           0      0.00%    100.00%
system.ruby.L1Cache_Controller.NP.Store::total         2011                      
system.ruby.L1Cache_Controller.NP.Transient_Local_GETX |        1642     18.79%     18.79% |        1631     18.66%     37.45% |        1641     18.78%     56.23% |        1644     18.81%     75.04% |        2181     24.96%    100.00%
system.ruby.L1Cache_Controller.NP.Transient_Local_GETX::total         8739                      
system.ruby.L1Cache_Controller.NP.Transient_Local_GETS |       10875     18.68%     18.68% |       10892     18.71%     37.38% |       10954     18.81%     56.20% |       10959     18.82%     75.02% |       14545     24.98%    100.00%
system.ruby.L1Cache_Controller.NP.Transient_Local_GETS::total        58225                      
system.ruby.L1Cache_Controller.NP.Own_Lock_or_Unlock |         639     19.13%     19.13% |         628     18.80%     37.93% |         614     18.38%     56.32% |         624     18.68%     75.00% |         835     25.00%    100.00%
system.ruby.L1Cache_Controller.NP.Own_Lock_or_Unlock::total         3340                      
system.ruby.L1Cache_Controller.I.Load    |           1     14.29%     14.29% |           2     28.57%     42.86% |           2     28.57%     71.43% |           2     28.57%    100.00% |           0      0.00%    100.00%
system.ruby.L1Cache_Controller.I.Load::total            7                      
system.ruby.L1Cache_Controller.I.Store   |           0      0.00%      0.00% |           0      0.00%      0.00% |           0      0.00%      0.00% |           1    100.00%    100.00% |           0      0.00%    100.00%
system.ruby.L1Cache_Controller.I.Store::total            1                      
system.ruby.L1Cache_Controller.S.Load    |        9574     26.27%     26.27% |       10150     27.85%     54.12% |        8679     23.81%     77.93% |        7987     21.91%     99.85% |          56      0.15%    100.00%
system.ruby.L1Cache_Controller.S.Load::total        36446                      
system.ruby.L1Cache_Controller.S.Ifetch  |        1870     11.94%     11.94% |        4947     31.59%     43.53% |        3711     23.69%     67.22% |        5134     32.78%    100.00% |           0      0.00%    100.00%
system.ruby.L1Cache_Controller.S.Ifetch::total        15662                      
system.ruby.L1Cache_Controller.S.Store   |          42     24.14%     24.14% |          47     27.01%     51.15% |          41     23.56%     74.71% |          40     22.99%     97.70% |           4      2.30%    100.00%
system.ruby.L1Cache_Controller.S.Store::total          174                      
system.ruby.L1Cache_Controller.S.L1_Replacement |         390     29.04%     29.04% |         347     25.84%     54.88% |         302     22.49%     77.36% |         304     22.64%    100.00% |           0      0.00%    100.00%
system.ruby.L1Cache_Controller.S.L1_Replacement::total         1343                      
system.ruby.L1Cache_Controller.S.Transient_Local_GETX |           1     25.00%     25.00% |           1     25.00%     50.00% |           1     25.00%     75.00% |           1     25.00%    100.00% |           0      0.00%    100.00%
system.ruby.L1Cache_Controller.S.Transient_Local_GETX::total            4                      
system.ruby.L1Cache_Controller.S.Transient_Local_GETS_Last_Token |           1     25.00%     25.00% |           1     25.00%     50.00% |           1     25.00%     75.00% |           1     25.00%    100.00% |           0      0.00%    100.00%
system.ruby.L1Cache_Controller.S.Transient_Local_GETS_Last_Token::total            4                      
system.ruby.L1Cache_Controller.M.Load    |       15701     24.09%     24.09% |       16410     25.18%     49.27% |       16493     25.31%     74.58% |       16548     25.39%     99.98% |          15      0.02%    100.00%
system.ruby.L1Cache_Controller.M.Load::total        65167                      
system.ruby.L1Cache_Controller.M.Ifetch  |       48989     23.68%     23.68% |       52664     25.46%     49.14% |       50781     24.55%     73.69% |       54428     26.31%    100.00% |           0      0.00%    100.00%
system.ruby.L1Cache_Controller.M.Ifetch::total       206862                      
system.ruby.L1Cache_Controller.M.Store   |          53     25.24%     25.24% |          52     24.76%     50.00% |          48     22.86%     72.86% |          53     25.24%     98.10% |           4      1.90%    100.00%
system.ruby.L1Cache_Controller.M.Store::total          210                      
system.ruby.L1Cache_Controller.M.L1_Replacement |        1748     24.79%     24.79% |        1779     25.23%     50.03% |        1768     25.08%     75.11% |        1755     24.89%    100.00% |           0      0.00%    100.00%
system.ruby.L1Cache_Controller.M.L1_Replacement::total         7050                      
system.ruby.L1Cache_Controller.M.Own_Lock_or_Unlock |         156     22.94%     22.94% |         175     25.74%     48.68% |         189     27.79%     76.47% |         160     23.53%    100.00% |           0      0.00%    100.00%
system.ruby.L1Cache_Controller.M.Own_Lock_or_Unlock::total          680                      
system.ruby.L1Cache_Controller.MM.Load   |       24326     21.65%     21.65% |       27954     24.88%     46.54% |       26554     23.64%     70.17% |       33510     29.83%    100.00% |           0      0.00%    100.00%
system.ruby.L1Cache_Controller.MM.Load::total       112344                      
system.ruby.L1Cache_Controller.MM.Store  |       11729     20.85%     20.85% |       14757     26.24%     47.09% |       13255     23.57%     70.65% |       16435     29.22%     99.87% |          71      0.13%    100.00%
system.ruby.L1Cache_Controller.MM.Store::total        56247                      
system.ruby.L1Cache_Controller.MM.L1_Replacement |         518     25.17%     25.17% |         522     25.36%     50.53% |         508     24.68%     75.22% |         510     24.78%    100.00% |           0      0.00%    100.00%
system.ruby.L1Cache_Controller.MM.L1_Replacement::total         2058                      
system.ruby.L1Cache_Controller.MM.Transient_Local_GETX |           0      0.00%      0.00% |           0      0.00%      0.00% |           0      0.00%      0.00% |           0      0.00%      0.00% |           1    100.00%    100.00%
system.ruby.L1Cache_Controller.MM.Transient_Local_GETX::total            1                      
system.ruby.L1Cache_Controller.MM.Transient_Local_GETS |           0      0.00%      0.00% |           1      9.09%      9.09% |           1      9.09%     18.18% |           2     18.18%     36.36% |           7     63.64%    100.00%
system.ruby.L1Cache_Controller.MM.Transient_Local_GETS::total           11                      
system.ruby.L1Cache_Controller.MM.Own_Lock_or_Unlock |          40     25.81%     25.81% |          32     20.65%     46.45% |          32     20.65%     67.10% |          51     32.90%    100.00% |           0      0.00%    100.00%
system.ruby.L1Cache_Controller.MM.Own_Lock_or_Unlock::total          155                      
system.ruby.L1Cache_Controller.M_W.Load  |       10970     24.49%     24.49% |       11352     25.34%     49.82% |       11280     25.18%     75.00% |       11195     24.99%     99.99% |           4      0.01%    100.00%
system.ruby.L1Cache_Controller.M_W.Load::total        44801                      
system.ruby.L1Cache_Controller.M_W.Ifetch |         438     25.30%     25.30% |         426     24.61%     49.91% |         442     25.53%     75.45% |         425     24.55%    100.00% |           0      0.00%    100.00%
system.ruby.L1Cache_Controller.M_W.Ifetch::total         1731                      
system.ruby.L1Cache_Controller.M_W.Store |          10     25.00%     25.00% |          10     25.00%     50.00% |          11     27.50%     77.50% |           9     22.50%    100.00% |           0      0.00%    100.00%
system.ruby.L1Cache_Controller.M_W.Store::total           40                      
system.ruby.L1Cache_Controller.M_W.L1_Replacement |           1    100.00%    100.00% |           0      0.00%    100.00% |           0      0.00%    100.00% |           0      0.00%    100.00% |           0      0.00%    100.00%
system.ruby.L1Cache_Controller.M_W.L1_Replacement::total            1                      
system.ruby.L1Cache_Controller.M_W.Own_Lock_or_Unlock |          27     25.47%     25.47% |          31     29.25%     54.72% |          25     23.58%     78.30% |          23     21.70%    100.00% |           0      0.00%    100.00%
system.ruby.L1Cache_Controller.M_W.Own_Lock_or_Unlock::total          106                      
system.ruby.L1Cache_Controller.M_W.Use_TimeoutNoStarvers |        3052     24.97%     24.97% |        3054     24.99%     49.96% |        3053     24.98%     74.94% |        3058     25.02%     99.97% |           4      0.03%    100.00%
system.ruby.L1Cache_Controller.M_W.Use_TimeoutNoStarvers::total        12221                      
system.ruby.L1Cache_Controller.MM_W.Load |          30     24.79%     24.79% |          28     23.14%     47.93% |          37     30.58%     78.51% |          26     21.49%    100.00% |           0      0.00%    100.00%
system.ruby.L1Cache_Controller.MM_W.Load::total          121                      
system.ruby.L1Cache_Controller.MM_W.Store |        1974     24.84%     24.84% |        2006     25.25%     50.09% |        1982     24.94%     75.03% |        1980     24.92%     99.95% |           4      0.05%    100.00%
system.ruby.L1Cache_Controller.MM_W.Store::total         7946                      
system.ruby.L1Cache_Controller.MM_W.Own_Lock_or_Unlock |           7     29.17%     29.17% |           7     29.17%     58.33% |           4     16.67%     75.00% |           6     25.00%    100.00% |           0      0.00%    100.00%
system.ruby.L1Cache_Controller.MM_W.Own_Lock_or_Unlock::total           24                      
system.ruby.L1Cache_Controller.MM_W.Use_TimeoutNoStarvers |         553     24.84%     24.84% |         564     25.34%     50.18% |         555     24.93%     75.11% |         550     24.71%     99.82% |           4      0.18%    100.00%
system.ruby.L1Cache_Controller.MM_W.Use_TimeoutNoStarvers::total         2226                      
system.ruby.L1Cache_Controller.IM.Data_All_Tokens |         501     24.90%     24.90% |         507     25.20%     50.10% |         503     25.00%     75.10% |         501     24.90%    100.00% |           0      0.00%    100.00%
system.ruby.L1Cache_Controller.IM.Data_All_Tokens::total         2012                      
system.ruby.L1Cache_Controller.IM.Own_Lock_or_Unlock |          33     25.38%     25.38% |          24     18.46%     43.85% |          28     21.54%     65.38% |          45     34.62%    100.00% |           0      0.00%    100.00%
system.ruby.L1Cache_Controller.IM.Own_Lock_or_Unlock::total          130                      
system.ruby.L1Cache_Controller.IM.Request_Timeout |          87     27.88%     27.88% |          85     27.24%     55.13% |          74     23.72%     78.85% |          66     21.15%    100.00% |           0      0.00%    100.00%
system.ruby.L1Cache_Controller.IM.Request_Timeout::total          312                      
system.ruby.L1Cache_Controller.SM.Data_All_Tokens |          42     24.14%     24.14% |          47     27.01%     51.15% |          41     23.56%     74.71% |          40     22.99%     97.70% |           4      2.30%    100.00%
system.ruby.L1Cache_Controller.SM.Data_All_Tokens::total          174                      
system.ruby.L1Cache_Controller.SM.Ack    |           0      0.00%      0.00% |           0      0.00%      0.00% |           0      0.00%      0.00% |           0      0.00%      0.00% |           4    100.00%    100.00%
system.ruby.L1Cache_Controller.SM.Ack::total            4                      
system.ruby.L1Cache_Controller.IS.L1_Replacement |           1    100.00%    100.00% |           0      0.00%    100.00% |           0      0.00%    100.00% |           0      0.00%    100.00% |           0      0.00%    100.00%
system.ruby.L1Cache_Controller.IS.L1_Replacement::total            1                      
system.ruby.L1Cache_Controller.IS.Data_Shared |         622     27.07%     27.07% |         602     26.20%     53.26% |         540     23.50%     76.76% |         530     23.06%     99.83% |           4      0.17%    100.00%
system.ruby.L1Cache_Controller.IS.Data_Shared::total         2298                      
system.ruby.L1Cache_Controller.IS.Data_All_Tokens |        3062     24.97%     24.97% |        3064     24.99%     49.96% |        3064     24.99%     74.95% |        3068     25.02%     99.97% |           4      0.03%    100.00%
system.ruby.L1Cache_Controller.IS.Data_All_Tokens::total        12262                      
system.ruby.L1Cache_Controller.IS.Own_Lock_or_Unlock |         129     22.43%     22.43% |         145     25.22%     47.65% |         164     28.52%     76.17% |         137     23.83%    100.00% |           0      0.00%    100.00%
system.ruby.L1Cache_Controller.IS.Own_Lock_or_Unlock::total          575                      
system.ruby.L1Cache_Controller.IS.Request_Timeout |        1051     24.75%     24.75% |         878     20.68%     45.43% |        1125     26.50%     71.93% |        1192     28.07%    100.00% |           0      0.00%    100.00%
system.ruby.L1Cache_Controller.IS.Request_Timeout::total         4246                      
system.ruby.L1Cache_Controller.I_L.Persistent_GETX |         114     18.51%     18.51% |         123     19.97%     38.47% |         122     19.81%     58.28% |         103     16.72%     75.00% |         154     25.00%    100.00%
system.ruby.L1Cache_Controller.I_L.Persistent_GETX::total          616                      
system.ruby.L1Cache_Controller.I_L.Persistent_GETS |         525     19.27%     19.27% |         505     18.54%     37.81% |         492     18.06%     55.87% |         521     19.13%     75.00% |         681     25.00%    100.00%
system.ruby.L1Cache_Controller.I_L.Persistent_GETS::total         2724                      
system.ruby.L2Cache_Controller.L1_GETS          14560      0.00%      0.00%
system.ruby.L2Cache_Controller.L1_GETX           2186      0.00%      0.00%
system.ruby.L2Cache_Controller.L1_INV              16      0.00%      0.00%
system.ruby.L2Cache_Controller.Writeback_Shared_Data            1      0.00%      0.00%
system.ruby.L2Cache_Controller.Writeback_All_Tokens        10450      0.00%      0.00%
system.ruby.L2Cache_Controller.Persistent_GETX          154      0.00%      0.00%
system.ruby.L2Cache_Controller.Persistent_GETS          681      0.00%      0.00%
system.ruby.L2Cache_Controller.Own_Lock_or_Unlock          835      0.00%      0.00%
system.ruby.L2Cache_Controller.NP.L1_GETS        12251      0.00%      0.00%
system.ruby.L2Cache_Controller.NP.L1_GETX         1821      0.00%      0.00%
system.ruby.L2Cache_Controller.NP.Writeback_All_Tokens         8940      0.00%      0.00%
system.ruby.L2Cache_Controller.NP.Own_Lock_or_Unlock          835      0.00%      0.00%
system.ruby.L2Cache_Controller.I.L1_GETS           11      0.00%      0.00%
system.ruby.L2Cache_Controller.I.L1_GETX            1      0.00%      0.00%
system.ruby.L2Cache_Controller.I.L1_INV            16      0.00%      0.00%
system.ruby.L2Cache_Controller.I.Writeback_All_Tokens          168      0.00%      0.00%
system.ruby.L2Cache_Controller.O.L1_GETS            5      0.00%      0.00%
system.ruby.L2Cache_Controller.O.L1_GETX          174      0.00%      0.00%
system.ruby.L2Cache_Controller.O.Writeback_Shared_Data            1      0.00%      0.00%
system.ruby.L2Cache_Controller.O.Writeback_All_Tokens         1342      0.00%      0.00%
system.ruby.L2Cache_Controller.M.L1_GETS         2293      0.00%      0.00%
system.ruby.L2Cache_Controller.M.L1_GETX          190      0.00%      0.00%
system.ruby.L2Cache_Controller.I_L.Persistent_GETX          154      0.00%      0.00%
system.ruby.L2Cache_Controller.I_L.Persistent_GETS          681      0.00%      0.00%

---------- End Simulation Statistics   ----------
