
---------- Begin Simulation Statistics ----------
sim_seconds                                  0.022515                       # Number of seconds simulated
sim_ticks                                 22515222000                       # Number of ticks simulated
final_tick                                22515222000                       # Number of ticks from beginning of simulation (restored from checkpoints and never reset)
sim_freq                                 1000000000000                       # Frequency of simulated ticks
host_inst_rate                                  53653                       # Simulator instruction rate (inst/s)
host_op_rate                                   106624                       # Simulator op (including micro ops) rate (op/s)
host_tick_rate                               22805134                       # Simulator tick rate (ticks/s)
host_mem_usage                                 850268                       # Number of bytes of host memory used
host_seconds                                   987.29                       # Real time elapsed on the host
sim_insts                                    52971286                       # Number of instructions simulated
sim_ops                                     105268378                       # Number of ops (including micro ops) simulated
system.voltage_domain.voltage                       1                       # Voltage in Volts
system.clk_domain.clock                          1000                       # Clock period in ticks
system.mem_ctrls.pwrStateResidencyTicks::UNDEFINED  22515222000                       # Cumulative time (in ticks) in various power states
system.mem_ctrls.bytes_read::ruby.dir_cntrl0      1565696                       # Number of bytes read from this memory
system.mem_ctrls.bytes_read::total            1565696                       # Number of bytes read from this memory
system.mem_ctrls.bytes_written::ruby.dir_cntrl0           64                       # Number of bytes written to this memory
system.mem_ctrls.bytes_written::total              64                       # Number of bytes written to this memory
system.mem_ctrls.num_reads::ruby.dir_cntrl0        24464                       # Number of read requests responded to by this memory
system.mem_ctrls.num_reads::total               24464                       # Number of read requests responded to by this memory
system.mem_ctrls.num_writes::ruby.dir_cntrl0            1                       # Number of write requests responded to by this memory
system.mem_ctrls.num_writes::total                  1                       # Number of write requests responded to by this memory
system.mem_ctrls.bw_read::ruby.dir_cntrl0     69539443                       # Total read bandwidth from this memory (bytes/s)
system.mem_ctrls.bw_read::total              69539443                       # Total read bandwidth from this memory (bytes/s)
system.mem_ctrls.bw_write::ruby.dir_cntrl0         2843                       # Write bandwidth from this memory (bytes/s)
system.mem_ctrls.bw_write::total                 2843                       # Write bandwidth from this memory (bytes/s)
system.mem_ctrls.bw_total::ruby.dir_cntrl0     69542286                       # Total bandwidth to/from this memory (bytes/s)
system.mem_ctrls.bw_total::total             69542286                       # Total bandwidth to/from this memory (bytes/s)
system.mem_ctrls.readReqs                       24464                       # Number of read requests accepted
system.mem_ctrls.avgNetLat                       0.00                       # Average network latency to DRAM controller
system.mem_ctrls.writeReqs                          1                       # Number of write requests accepted
system.mem_ctrls.readBursts                     24464                       # Number of DRAM read bursts, including those serviced by the write queue
system.mem_ctrls.writeBursts                        1                       # Number of DRAM write bursts, including those merged in the write queue
system.mem_ctrls.bytesReadDRAM                1565696                       # Total number of bytes read from DRAM
system.mem_ctrls.bytesReadWrQ                       0                       # Total number of bytes read from write queue
system.mem_ctrls.bytesWritten                       0                       # Total number of bytes written to DRAM
system.mem_ctrls.bytesReadSys                 1565696                       # Total read bytes from the system interface side
system.mem_ctrls.bytesWrittenSys                   64                       # Total written bytes from the system interface side
system.mem_ctrls.servicedByWrQ                      0                       # Number of DRAM read bursts serviced by the write queue
system.mem_ctrls.mergedWrBursts                     0                       # Number of DRAM write bursts merged with an existing one
system.mem_ctrls.neitherReadNorWriteReqs            0                       # Number of requests that are neither read nor write
system.mem_ctrls.perBankRdBursts::0              1571                       # Per bank write bursts
system.mem_ctrls.perBankRdBursts::1              1689                       # Per bank write bursts
system.mem_ctrls.perBankRdBursts::2              1639                       # Per bank write bursts
system.mem_ctrls.perBankRdBursts::3              1435                       # Per bank write bursts
system.mem_ctrls.perBankRdBursts::4              1328                       # Per bank write bursts
system.mem_ctrls.perBankRdBursts::5              1368                       # Per bank write bursts
system.mem_ctrls.perBankRdBursts::6              1585                       # Per bank write bursts
system.mem_ctrls.perBankRdBursts::7              1608                       # Per bank write bursts
system.mem_ctrls.perBankRdBursts::8              1472                       # Per bank write bursts
system.mem_ctrls.perBankRdBursts::9              1378                       # Per bank write bursts
system.mem_ctrls.perBankRdBursts::10             1377                       # Per bank write bursts
system.mem_ctrls.perBankRdBursts::11             1442                       # Per bank write bursts
system.mem_ctrls.perBankRdBursts::12             1736                       # Per bank write bursts
system.mem_ctrls.perBankRdBursts::13             1771                       # Per bank write bursts
system.mem_ctrls.perBankRdBursts::14             1570                       # Per bank write bursts
system.mem_ctrls.perBankRdBursts::15             1495                       # Per bank write bursts
system.mem_ctrls.perBankWrBursts::0                 0                       # Per bank write bursts
system.mem_ctrls.perBankWrBursts::1                 0                       # Per bank write bursts
system.mem_ctrls.perBankWrBursts::2                 0                       # Per bank write bursts
system.mem_ctrls.perBankWrBursts::3                 0                       # Per bank write bursts
system.mem_ctrls.perBankWrBursts::4                 0                       # Per bank write bursts
system.mem_ctrls.perBankWrBursts::5                 0                       # Per bank write bursts
system.mem_ctrls.perBankWrBursts::6                 0                       # Per bank write bursts
system.mem_ctrls.perBankWrBursts::7                 0                       # Per bank write bursts
system.mem_ctrls.perBankWrBursts::8                 0                       # Per bank write bursts
system.mem_ctrls.perBankWrBursts::9                 0                       # Per bank write bursts
system.mem_ctrls.perBankWrBursts::10                0                       # Per bank write bursts
system.mem_ctrls.perBankWrBursts::11                0                       # Per bank write bursts
system.mem_ctrls.perBankWrBursts::12                0                       # Per bank write bursts
system.mem_ctrls.perBankWrBursts::13                0                       # Per bank write bursts
system.mem_ctrls.perBankWrBursts::14                0                       # Per bank write bursts
system.mem_ctrls.perBankWrBursts::15                0                       # Per bank write bursts
system.mem_ctrls.numRdRetry                         0                       # Number of times read queue was full causing retry
system.mem_ctrls.numWrRetry                         0                       # Number of times write queue was full causing retry
system.mem_ctrls.totGap                   22515128500                       # Total gap between requests
system.mem_ctrls.readPktSize::0                     0                       # Read request sizes (log2)
system.mem_ctrls.readPktSize::1                     0                       # Read request sizes (log2)
system.mem_ctrls.readPktSize::2                     0                       # Read request sizes (log2)
system.mem_ctrls.readPktSize::3                     0                       # Read request sizes (log2)
system.mem_ctrls.readPktSize::4                     0                       # Read request sizes (log2)
system.mem_ctrls.readPktSize::5                     0                       # Read request sizes (log2)
system.mem_ctrls.readPktSize::6                 24464                       # Read request sizes (log2)
system.mem_ctrls.writePktSize::0                    0                       # Write request sizes (log2)
system.mem_ctrls.writePktSize::1                    0                       # Write request sizes (log2)
system.mem_ctrls.writePktSize::2                    0                       # Write request sizes (log2)
system.mem_ctrls.writePktSize::3                    0                       # Write request sizes (log2)
system.mem_ctrls.writePktSize::4                    0                       # Write request sizes (log2)
system.mem_ctrls.writePktSize::5                    0                       # Write request sizes (log2)
system.mem_ctrls.writePktSize::6                    1                       # Write request sizes (log2)
system.mem_ctrls.rdQLenPdf::0                   12377                       # What read queue length does an incoming req see
system.mem_ctrls.rdQLenPdf::1                    2744                       # What read queue length does an incoming req see
system.mem_ctrls.rdQLenPdf::2                    2421                       # What read queue length does an incoming req see
system.mem_ctrls.rdQLenPdf::3                    1760                       # What read queue length does an incoming req see
system.mem_ctrls.rdQLenPdf::4                    1218                       # What read queue length does an incoming req see
system.mem_ctrls.rdQLenPdf::5                     982                       # What read queue length does an incoming req see
system.mem_ctrls.rdQLenPdf::6                     863                       # What read queue length does an incoming req see
system.mem_ctrls.rdQLenPdf::7                     781                       # What read queue length does an incoming req see
system.mem_ctrls.rdQLenPdf::8                     589                       # What read queue length does an incoming req see
system.mem_ctrls.rdQLenPdf::9                     317                       # What read queue length does an incoming req see
system.mem_ctrls.rdQLenPdf::10                    178                       # What read queue length does an incoming req see
system.mem_ctrls.rdQLenPdf::11                    124                       # What read queue length does an incoming req see
system.mem_ctrls.rdQLenPdf::12                     48                       # What read queue length does an incoming req see
system.mem_ctrls.rdQLenPdf::13                     27                       # What read queue length does an incoming req see
system.mem_ctrls.rdQLenPdf::14                     15                       # What read queue length does an incoming req see
system.mem_ctrls.rdQLenPdf::15                     12                       # What read queue length does an incoming req see
system.mem_ctrls.rdQLenPdf::16                      3                       # What read queue length does an incoming req see
system.mem_ctrls.rdQLenPdf::17                      3                       # What read queue length does an incoming req see
system.mem_ctrls.rdQLenPdf::18                      2                       # What read queue length does an incoming req see
system.mem_ctrls.rdQLenPdf::19                      0                       # What read queue length does an incoming req see
system.mem_ctrls.rdQLenPdf::20                      0                       # What read queue length does an incoming req see
system.mem_ctrls.rdQLenPdf::21                      0                       # What read queue length does an incoming req see
system.mem_ctrls.rdQLenPdf::22                      0                       # What read queue length does an incoming req see
system.mem_ctrls.rdQLenPdf::23                      0                       # What read queue length does an incoming req see
system.mem_ctrls.rdQLenPdf::24                      0                       # What read queue length does an incoming req see
system.mem_ctrls.rdQLenPdf::25                      0                       # What read queue length does an incoming req see
system.mem_ctrls.rdQLenPdf::26                      0                       # What read queue length does an incoming req see
system.mem_ctrls.rdQLenPdf::27                      0                       # What read queue length does an incoming req see
system.mem_ctrls.rdQLenPdf::28                      0                       # What read queue length does an incoming req see
system.mem_ctrls.rdQLenPdf::29                      0                       # What read queue length does an incoming req see
system.mem_ctrls.rdQLenPdf::30                      0                       # What read queue length does an incoming req see
system.mem_ctrls.rdQLenPdf::31                      0                       # What read queue length does an incoming req see
system.mem_ctrls.wrQLenPdf::0                       1                       # What write queue length does an incoming req see
system.mem_ctrls.wrQLenPdf::1                       0                       # What write queue length does an incoming req see
system.mem_ctrls.wrQLenPdf::2                       0                       # What write queue length does an incoming req see
system.mem_ctrls.wrQLenPdf::3                       0                       # What write queue length does an incoming req see
system.mem_ctrls.wrQLenPdf::4                       0                       # What write queue length does an incoming req see
system.mem_ctrls.wrQLenPdf::5                       0                       # What write queue length does an incoming req see
system.mem_ctrls.wrQLenPdf::6                       0                       # What write queue length does an incoming req see
system.mem_ctrls.wrQLenPdf::7                       0                       # What write queue length does an incoming req see
system.mem_ctrls.wrQLenPdf::8                       0                       # What write queue length does an incoming req see
system.mem_ctrls.wrQLenPdf::9                       0                       # What write queue length does an incoming req see
system.mem_ctrls.wrQLenPdf::10                      0                       # What write queue length does an incoming req see
system.mem_ctrls.wrQLenPdf::11                      0                       # What write queue length does an incoming req see
system.mem_ctrls.wrQLenPdf::12                      0                       # What write queue length does an incoming req see
system.mem_ctrls.wrQLenPdf::13                      0                       # What write queue length does an incoming req see
system.mem_ctrls.wrQLenPdf::14                      0                       # What write queue length does an incoming req see
system.mem_ctrls.wrQLenPdf::15                      0                       # What write queue length does an incoming req see
system.mem_ctrls.wrQLenPdf::16                      0                       # What write queue length does an incoming req see
system.mem_ctrls.wrQLenPdf::17                      0                       # What write queue length does an incoming req see
system.mem_ctrls.wrQLenPdf::18                      0                       # What write queue length does an incoming req see
system.mem_ctrls.wrQLenPdf::19                      0                       # What write queue length does an incoming req see
system.mem_ctrls.wrQLenPdf::20                      0                       # What write queue length does an incoming req see
system.mem_ctrls.wrQLenPdf::21                      0                       # What write queue length does an incoming req see
system.mem_ctrls.wrQLenPdf::22                      0                       # What write queue length does an incoming req see
system.mem_ctrls.wrQLenPdf::23                      0                       # What write queue length does an incoming req see
system.mem_ctrls.wrQLenPdf::24                      0                       # What write queue length does an incoming req see
system.mem_ctrls.wrQLenPdf::25                      0                       # What write queue length does an incoming req see
system.mem_ctrls.wrQLenPdf::26                      0                       # What write queue length does an incoming req see
system.mem_ctrls.wrQLenPdf::27                      0                       # What write queue length does an incoming req see
system.mem_ctrls.wrQLenPdf::28                      0                       # What write queue length does an incoming req see
system.mem_ctrls.wrQLenPdf::29                      0                       # What write queue length does an incoming req see
system.mem_ctrls.wrQLenPdf::30                      0                       # What write queue length does an incoming req see
system.mem_ctrls.wrQLenPdf::31                      0                       # What write queue length does an incoming req see
system.mem_ctrls.wrQLenPdf::32                      0                       # What write queue length does an incoming req see
system.mem_ctrls.wrQLenPdf::33                      0                       # What write queue length does an incoming req see
system.mem_ctrls.wrQLenPdf::34                      0                       # What write queue length does an incoming req see
system.mem_ctrls.wrQLenPdf::35                      0                       # What write queue length does an incoming req see
system.mem_ctrls.wrQLenPdf::36                      0                       # What write queue length does an incoming req see
system.mem_ctrls.wrQLenPdf::37                      0                       # What write queue length does an incoming req see
system.mem_ctrls.wrQLenPdf::38                      0                       # What write queue length does an incoming req see
system.mem_ctrls.wrQLenPdf::39                      0                       # What write queue length does an incoming req see
system.mem_ctrls.wrQLenPdf::40                      0                       # What write queue length does an incoming req see
system.mem_ctrls.wrQLenPdf::41                      0                       # What write queue length does an incoming req see
system.mem_ctrls.wrQLenPdf::42                      0                       # What write queue length does an incoming req see
system.mem_ctrls.wrQLenPdf::43                      0                       # What write queue length does an incoming req see
system.mem_ctrls.wrQLenPdf::44                      0                       # What write queue length does an incoming req see
system.mem_ctrls.wrQLenPdf::45                      0                       # What write queue length does an incoming req see
system.mem_ctrls.wrQLenPdf::46                      0                       # What write queue length does an incoming req see
system.mem_ctrls.wrQLenPdf::47                      0                       # What write queue length does an incoming req see
system.mem_ctrls.wrQLenPdf::48                      0                       # What write queue length does an incoming req see
system.mem_ctrls.wrQLenPdf::49                      0                       # What write queue length does an incoming req see
system.mem_ctrls.wrQLenPdf::50                      0                       # What write queue length does an incoming req see
system.mem_ctrls.wrQLenPdf::51                      0                       # What write queue length does an incoming req see
system.mem_ctrls.wrQLenPdf::52                      0                       # What write queue length does an incoming req see
system.mem_ctrls.wrQLenPdf::53                      0                       # What write queue length does an incoming req see
system.mem_ctrls.wrQLenPdf::54                      0                       # What write queue length does an incoming req see
system.mem_ctrls.wrQLenPdf::55                      0                       # What write queue length does an incoming req see
system.mem_ctrls.wrQLenPdf::56                      0                       # What write queue length does an incoming req see
system.mem_ctrls.wrQLenPdf::57                      0                       # What write queue length does an incoming req see
system.mem_ctrls.wrQLenPdf::58                      0                       # What write queue length does an incoming req see
system.mem_ctrls.wrQLenPdf::59                      0                       # What write queue length does an incoming req see
system.mem_ctrls.wrQLenPdf::60                      0                       # What write queue length does an incoming req see
system.mem_ctrls.wrQLenPdf::61                      0                       # What write queue length does an incoming req see
system.mem_ctrls.wrQLenPdf::62                      0                       # What write queue length does an incoming req see
system.mem_ctrls.wrQLenPdf::63                      0                       # What write queue length does an incoming req see
system.mem_ctrls.bytesPerActivate::samples         5154                       # Bytes accessed per row activation
system.mem_ctrls.bytesPerActivate::mean    303.435002                       # Bytes accessed per row activation
system.mem_ctrls.bytesPerActivate::gmean   164.203271                       # Bytes accessed per row activation
system.mem_ctrls.bytesPerActivate::stdev   349.835064                       # Bytes accessed per row activation
system.mem_ctrls.bytesPerActivate::0-127         2408     46.72%     46.72% # Bytes accessed per row activation
system.mem_ctrls.bytesPerActivate::128-255         1024     19.87%     66.59% # Bytes accessed per row activation
system.mem_ctrls.bytesPerActivate::256-383          322      6.25%     72.84% # Bytes accessed per row activation
system.mem_ctrls.bytesPerActivate::384-511          157      3.05%     75.88% # Bytes accessed per row activation
system.mem_ctrls.bytesPerActivate::512-639          154      2.99%     78.87% # Bytes accessed per row activation
system.mem_ctrls.bytesPerActivate::640-767          234      4.54%     83.41% # Bytes accessed per row activation
system.mem_ctrls.bytesPerActivate::768-895           46      0.89%     84.30% # Bytes accessed per row activation
system.mem_ctrls.bytesPerActivate::896-1023           48      0.93%     85.23% # Bytes accessed per row activation
system.mem_ctrls.bytesPerActivate::1024-1151          761     14.77%    100.00% # Bytes accessed per row activation
system.mem_ctrls.bytesPerActivate::total         5154                       # Bytes accessed per row activation
system.mem_ctrls.totQLat                    522663246                       # Total ticks spent queuing
system.mem_ctrls.totMemAccLat               981363246                       # Total ticks spent from burst creation until serviced by the DRAM
system.mem_ctrls.totBusLat                  122320000                       # Total ticks spent in databus transfers
system.mem_ctrls.avgQLat                     21364.59                       # Average queueing delay per DRAM burst
system.mem_ctrls.avgBusLat                    5000.00                       # Average bus latency per DRAM burst
system.mem_ctrls.avgMemAccLat                40114.59                       # Average memory access latency per DRAM burst
system.mem_ctrls.avgRdBW                        69.54                       # Average DRAM read bandwidth in MiByte/s
system.mem_ctrls.avgWrBW                         0.00                       # Average achieved write bandwidth in MiByte/s
system.mem_ctrls.avgRdBWSys                     69.54                       # Average system read bandwidth in MiByte/s
system.mem_ctrls.avgWrBWSys                      0.00                       # Average system write bandwidth in MiByte/s
system.mem_ctrls.peakBW                      12800.00                       # Theoretical peak bandwidth in MiByte/s
system.mem_ctrls.busUtil                         0.54                       # Data bus utilization in percentage
system.mem_ctrls.busUtilRead                     0.54                       # Data bus utilization in percentage for reads
system.mem_ctrls.busUtilWrite                    0.00                       # Data bus utilization in percentage for writes
system.mem_ctrls.avgRdQLen                       1.03                       # Average read queue length when enqueuing
system.mem_ctrls.avgWrQLen                       0.36                       # Average write queue length when enqueuing
system.mem_ctrls.readRowHits                    19299                       # Number of row buffer hits during reads
system.mem_ctrls.writeRowHits                       0                       # Number of row buffer hits during writes
system.mem_ctrls.readRowHitRate                 78.89                       # Row buffer hit rate for reads
system.mem_ctrls.writeRowHitRate                 0.00                       # Row buffer hit rate for writes
system.mem_ctrls.avgGap                     920299.55                       # Average gap between requests
system.mem_ctrls.pageHitRate                    78.88                       # Row buffer hit rate, read and write combined
system.mem_ctrls_0.actEnergy                 17157420                       # Energy for activate commands per rank (pJ)
system.mem_ctrls_0.preEnergy                  9100410                       # Energy for precharge commands per rank (pJ)
system.mem_ctrls_0.readEnergy                87272220                       # Energy for read commands per rank (pJ)
system.mem_ctrls_0.writeEnergy                      0                       # Energy for write commands per rank (pJ)
system.mem_ctrls_0.refreshEnergy         82361760.000000                       # Energy for refresh commands per rank (pJ)
system.mem_ctrls_0.actBackEnergy            149044170                       # Energy for active background per rank (pJ)
system.mem_ctrls_0.preBackEnergy              3155520                       # Energy for precharge background per rank (pJ)
system.mem_ctrls_0.actPowerDownEnergy       275185170                       # Energy for active power-down per rank (pJ)
system.mem_ctrls_0.prePowerDownEnergy        24738720                       # Energy for precharge power-down per rank (pJ)
system.mem_ctrls_0.selfRefreshEnergy       5166254340                       # Energy for self refresh per rank (pJ)
system.mem_ctrls_0.totalEnergy             5814269730                       # Total energy per rank (pJ)
system.mem_ctrls_0.averagePower            258.237276                       # Core power per rank (mW)
system.mem_ctrls_0.totalIdleTime          22180131784                       # Total Idle time Per DRAM Rank
system.mem_ctrls_0.memoryStateTime::IDLE      2948500                       # Time in different power states
system.mem_ctrls_0.memoryStateTime::REF      34876000                       # Time in different power states
system.mem_ctrls_0.memoryStateTime::SREF  21512254500                       # Time in different power states
system.mem_ctrls_0.memoryStateTime::PRE_PDN     64424000                       # Time in different power states
system.mem_ctrls_0.memoryStateTime::ACT     297235466                       # Time in different power states
system.mem_ctrls_0.memoryStateTime::ACT_PDN    603483534                       # Time in different power states
system.mem_ctrls_1.actEnergy                 19720680                       # Energy for activate commands per rank (pJ)
system.mem_ctrls_1.preEnergy                 10459020                       # Energy for precharge commands per rank (pJ)
system.mem_ctrls_1.readEnergy                87400740                       # Energy for read commands per rank (pJ)
system.mem_ctrls_1.writeEnergy                      0                       # Energy for write commands per rank (pJ)
system.mem_ctrls_1.refreshEnergy         78059280.000000                       # Energy for refresh commands per rank (pJ)
system.mem_ctrls_1.actBackEnergy            141684330                       # Energy for active background per rank (pJ)
system.mem_ctrls_1.preBackEnergy              3085440                       # Energy for precharge background per rank (pJ)
system.mem_ctrls_1.actPowerDownEnergy       260982480                       # Energy for active power-down per rank (pJ)
system.mem_ctrls_1.prePowerDownEnergy        22414080                       # Energy for precharge power-down per rank (pJ)
system.mem_ctrls_1.selfRefreshEnergy       5179099740                       # Energy for self refresh per rank (pJ)
system.mem_ctrls_1.totalEnergy             5802905790                       # Total energy per rank (pJ)
system.mem_ctrls_1.averagePower            257.732554                       # Core power per rank (mW)
system.mem_ctrls_1.totalIdleTime          22196432787                       # Total Idle time Per DRAM Rank
system.mem_ctrls_1.memoryStateTime::IDLE      2883250                       # Time in different power states
system.mem_ctrls_1.memoryStateTime::REF      33056000                       # Time in different power states
system.mem_ctrls_1.memoryStateTime::SREF  21565776250                       # Time in different power states
system.mem_ctrls_1.memoryStateTime::PRE_PDN     58373250                       # Time in different power states
system.mem_ctrls_1.memoryStateTime::ACT     282812213                       # Time in different power states
system.mem_ctrls_1.memoryStateTime::ACT_PDN    572321037                       # Time in different power states
system.pwrStateResidencyTicks::UNDEFINED  22515222000                       # Cumulative time (in ticks) in various power states
system.cpu0.branchPred.lookups                2417364                       # Number of BP lookups
system.cpu0.branchPred.condPredicted          2417364                       # Number of conditional branches predicted
system.cpu0.branchPred.condIncorrect             8865                       # Number of conditional branches incorrect
system.cpu0.branchPred.BTBLookups             1398062                       # Number of BTB lookups
system.cpu0.branchPred.BTBHits                      0                       # Number of BTB hits
system.cpu0.branchPred.BTBCorrect                   0                       # Number of correct BTB predictions (this stat may not work properly.
system.cpu0.branchPred.BTBHitPct             0.000000                       # BTB Hit Percentage
system.cpu0.branchPred.usedRAS                   2414                       # Number of times the RAS was used to get a target.
system.cpu0.branchPred.RASInCorrect               477                       # Number of incorrect RAS predictions.
system.cpu0.branchPred.indirectLookups        1398062                       # Number of indirect predictor lookups.
system.cpu0.branchPred.indirectHits           1187468                       # Number of indirect target hits.
system.cpu0.branchPred.indirectMisses          210594                       # Number of indirect misses.
system.cpu0.branchPredindirectMispredicted         4748                       # Number of mispredicted indirect branches.
system.cpu_voltage_domain.voltage                   1                       # Voltage in Volts
system.cpu0.clk_domain.clock                      500                       # Clock period in ticks
system.cpu0.dtb.walker.pwrStateResidencyTicks::UNDEFINED  22515222000                       # Cumulative time (in ticks) in various power states
system.cpu0.apic_clk_domain.clock                8000                       # Clock period in ticks
system.cpu0.interrupts.pwrStateResidencyTicks::UNDEFINED  22515222000                       # Cumulative time (in ticks) in various power states
system.cpu0.itb.walker.pwrStateResidencyTicks::UNDEFINED  22515222000                       # Cumulative time (in ticks) in various power states
system.cpu0.workload.num_syscalls                  42                       # Number of system calls
system.cpu0.pwrStateResidencyTicks::ON    22515222000                       # Cumulative time (in ticks) in various power states
system.cpu0.numCycles                         8914260                       # number of cpu cycles simulated
system.cpu0.numWorkItemsStarted                     0                       # number of work items this cpu started
system.cpu0.numWorkItemsCompleted                   0                       # number of work items this cpu completed
system.cpu0.fetch.icacheStallCycles             80973                       # Number of cycles fetch is stalled on an Icache miss
system.cpu0.fetch.Insts                       7420047                       # Number of instructions fetch has processed
system.cpu0.fetch.Branches                    2417364                       # Number of branches that fetch encountered
system.cpu0.fetch.predictedBranches           1189882                       # Number of branches that fetch has predicted taken
system.cpu0.fetch.Cycles                      8728486                       # Number of cycles fetch has run and was not squashing or blocked
system.cpu0.fetch.SquashCycles                  17885                       # Number of cycles fetch has spent squashing
system.cpu0.fetch.TlbCycles                         2                       # Number of cycles fetch has spent waiting for tlb
system.cpu0.fetch.MiscStallCycles               10849                       # Number of cycles fetch has spent waiting on interrupts, or bad addresses, or out of MSHRs
system.cpu0.fetch.NoActiveThreadStallCycles           10                       # Number of stall cycles due to no active thread to fetch from
system.cpu0.fetch.PendingTrapStallCycles          412                       # Number of stall cycles due to pending traps
system.cpu0.fetch.PendingQuiesceStallCycles           13                       # Number of stall cycles due to pending quiesce instructions
system.cpu0.fetch.IcacheWaitRetryStallCycles         6522                       # Number of stall cycles due to full MSHR
system.cpu0.fetch.CacheLines                    52471                       # Number of cache lines fetched
system.cpu0.fetch.IcacheSquashes                 2688                       # Number of outstanding Icache misses that were squashed
system.cpu0.fetch.rateDist::samples           8836209                       # Number of instructions fetched each cycle (Total)
system.cpu0.fetch.rateDist::mean             1.671410                       # Number of instructions fetched each cycle (Total)
system.cpu0.fetch.rateDist::stdev            2.900410                       # Number of instructions fetched each cycle (Total)
system.cpu0.fetch.rateDist::underflows              0      0.00%      0.00% # Number of instructions fetched each cycle (Total)
system.cpu0.fetch.rateDist::0                 6385452     72.26%     72.26% # Number of instructions fetched each cycle (Total)
system.cpu0.fetch.rateDist::1                    9364      0.11%     72.37% # Number of instructions fetched each cycle (Total)
system.cpu0.fetch.rateDist::2                    3711      0.04%     72.41% # Number of instructions fetched each cycle (Total)
system.cpu0.fetch.rateDist::3                    9125      0.10%     72.52% # Number of instructions fetched each cycle (Total)
system.cpu0.fetch.rateDist::4                 1164899     13.18%     85.70% # Number of instructions fetched each cycle (Total)
system.cpu0.fetch.rateDist::5                    7947      0.09%     85.79% # Number of instructions fetched each cycle (Total)
system.cpu0.fetch.rateDist::6                    6672      0.08%     85.86% # Number of instructions fetched each cycle (Total)
system.cpu0.fetch.rateDist::7                    6908      0.08%     85.94% # Number of instructions fetched each cycle (Total)
system.cpu0.fetch.rateDist::8                 1242131     14.06%    100.00% # Number of instructions fetched each cycle (Total)
system.cpu0.fetch.rateDist::overflows               0      0.00%    100.00% # Number of instructions fetched each cycle (Total)
system.cpu0.fetch.rateDist::min_value               0                       # Number of instructions fetched each cycle (Total)
system.cpu0.fetch.rateDist::max_value               8                       # Number of instructions fetched each cycle (Total)
system.cpu0.fetch.rateDist::total             8836209                       # Number of instructions fetched each cycle (Total)
system.cpu0.fetch.branchRate                 0.271179                       # Number of branch fetches per cycle
system.cpu0.fetch.rate                       0.832379                       # Number of inst fetches per cycle
system.cpu0.decode.IdleCycles                  661241                       # Number of cycles decode is idle
system.cpu0.decode.BlockedCycles              6318475                       # Number of cycles decode is blocked
system.cpu0.decode.RunCycles                    95655                       # Number of cycles decode is running
system.cpu0.decode.UnblockCycles              1751886                       # Number of cycles decode is unblocking
system.cpu0.decode.SquashCycles                  8942                       # Number of cycles decode is squashing
system.cpu0.decode.DecodedInsts              14685093                       # Number of instructions handled by decode
system.cpu0.rename.SquashCycles                  8942                       # Number of cycles rename is squashing
system.cpu0.rename.IdleCycles                  858327                       # Number of cycles rename is idle
system.cpu0.rename.BlockCycles                3752870                       # Number of cycles rename is blocking
system.cpu0.rename.serializeStallCycles          3368                       # count of cycles rename stalled for serializing inst
system.cpu0.rename.RunCycles                   693465                       # Number of cycles rename is running
system.cpu0.rename.UnblockCycles              3519227                       # Number of cycles rename is unblocking
system.cpu0.rename.RenamedInsts              14641945                       # Number of instructions processed by rename
system.cpu0.rename.ROBFullEvents              2226847                       # Number of times rename has blocked due to ROB full
system.cpu0.rename.IQFullEvents                 13615                       # Number of times rename has blocked due to IQ full
system.cpu0.rename.LQFullEvents                869450                       # Number of times rename has blocked due to LQ full
system.cpu0.rename.SQFullEvents                 36632                       # Number of times rename has blocked due to SQ full
system.cpu0.rename.RenamedOperands           17148330                       # Number of destination operands rename has renamed
system.cpu0.rename.RenameLookups             30844436                       # Number of register rename lookups that rename has made
system.cpu0.rename.int_rename_lookups        15001095                       # Number of integer rename lookups
system.cpu0.rename.fp_rename_lookups            17424                       # Number of floating rename lookups
system.cpu0.rename.CommittedMaps             16630399                       # Number of HB maps that are committed
system.cpu0.rename.UndoneMaps                  517931                       # Number of HB maps that are undone due to squashing
system.cpu0.rename.serializingInsts                73                       # count of serializing insts renamed
system.cpu0.rename.tempSerializingInsts            76                       # count of temporary serializing insts renamed
system.cpu0.rename.skidInsts                 11519178                       # count of insts added to the skid buffer
system.cpu0.memDep0.insertedLoads             2413569                       # Number of loads inserted to the mem dependence unit.
system.cpu0.memDep0.insertedStores              24111                       # Number of stores inserted to the mem dependence unit.
system.cpu0.memDep0.conflictingLoads             3024                       # Number of conflicting loads.
system.cpu0.memDep0.conflictingStores             321                       # Number of conflicting stores.
system.cpu0.iq.iqInstsAdded                  14563803                       # Number of instructions added to the IQ (excludes non-spec)
system.cpu0.iq.iqNonSpecInstsAdded                120                       # Number of non-speculative instructions added to the IQ
system.cpu0.iq.iqInstsIssued                 14566028                       # Number of instructions issued
system.cpu0.iq.iqSquashedInstsIssued             6869                       # Number of squashed instructions issued
system.cpu0.iq.iqSquashedInstsExamined         341364                       # Number of squashed instructions iterated over during squash; mainly for profiling
system.cpu0.iq.iqSquashedOperandsExamined       516906                       # Number of squashed operands that are examined and possibly removed from graph
system.cpu0.iq.iqSquashedNonSpecRemoved            78                       # Number of squashed non-spec instructions that were removed
system.cpu0.iq.issued_per_cycle::samples      8836209                       # Number of insts issued each cycle
system.cpu0.iq.issued_per_cycle::mean        1.648448                       # Number of insts issued each cycle
system.cpu0.iq.issued_per_cycle::stdev       1.383199                       # Number of insts issued each cycle
system.cpu0.iq.issued_per_cycle::underflows            0      0.00%      0.00% # Number of insts issued each cycle
system.cpu0.iq.issued_per_cycle::0            2192350     24.81%     24.81% # Number of insts issued each cycle
system.cpu0.iq.issued_per_cycle::1            2407653     27.25%     52.06% # Number of insts issued each cycle
system.cpu0.iq.issued_per_cycle::2            1715066     19.41%     71.47% # Number of insts issued each cycle
system.cpu0.iq.issued_per_cycle::3            1614326     18.27%     89.74% # Number of insts issued each cycle
system.cpu0.iq.issued_per_cycle::4             740156      8.38%     98.11% # Number of insts issued each cycle
system.cpu0.iq.issued_per_cycle::5             115037      1.30%     99.42% # Number of insts issued each cycle
system.cpu0.iq.issued_per_cycle::6              25396      0.29%     99.70% # Number of insts issued each cycle
system.cpu0.iq.issued_per_cycle::7              12720      0.14%     99.85% # Number of insts issued each cycle
system.cpu0.iq.issued_per_cycle::8              13505      0.15%    100.00% # Number of insts issued each cycle
system.cpu0.iq.issued_per_cycle::overflows            0      0.00%    100.00% # Number of insts issued each cycle
system.cpu0.iq.issued_per_cycle::min_value            0                       # Number of insts issued each cycle
system.cpu0.iq.issued_per_cycle::max_value            8                       # Number of insts issued each cycle
system.cpu0.iq.issued_per_cycle::total        8836209                       # Number of insts issued each cycle
system.cpu0.iq.fu_full::No_OpClass                  0      0.00%      0.00% # attempts to use FU when none available
system.cpu0.iq.fu_full::IntAlu                   5751     24.18%     24.18% # attempts to use FU when none available
system.cpu0.iq.fu_full::IntMult                     0      0.00%     24.18% # attempts to use FU when none available
system.cpu0.iq.fu_full::IntDiv                      0      0.00%     24.18% # attempts to use FU when none available
system.cpu0.iq.fu_full::FloatAdd                   45      0.19%     24.37% # attempts to use FU when none available
system.cpu0.iq.fu_full::FloatCmp                    0      0.00%     24.37% # attempts to use FU when none available
system.cpu0.iq.fu_full::FloatCvt                    0      0.00%     24.37% # attempts to use FU when none available
system.cpu0.iq.fu_full::FloatMult                   0      0.00%     24.37% # attempts to use FU when none available
system.cpu0.iq.fu_full::FloatMultAcc                0      0.00%     24.37% # attempts to use FU when none available
system.cpu0.iq.fu_full::FloatDiv                    0      0.00%     24.37% # attempts to use FU when none available
system.cpu0.iq.fu_full::FloatMisc                   0      0.00%     24.37% # attempts to use FU when none available
system.cpu0.iq.fu_full::FloatSqrt                   0      0.00%     24.37% # attempts to use FU when none available
system.cpu0.iq.fu_full::SimdAdd                     0      0.00%     24.37% # attempts to use FU when none available
system.cpu0.iq.fu_full::SimdAddAcc                  0      0.00%     24.37% # attempts to use FU when none available
system.cpu0.iq.fu_full::SimdAlu                     0      0.00%     24.37% # attempts to use FU when none available
system.cpu0.iq.fu_full::SimdCmp                     0      0.00%     24.37% # attempts to use FU when none available
system.cpu0.iq.fu_full::SimdCvt                     0      0.00%     24.37% # attempts to use FU when none available
system.cpu0.iq.fu_full::SimdMisc                    0      0.00%     24.37% # attempts to use FU when none available
system.cpu0.iq.fu_full::SimdMult                    0      0.00%     24.37% # attempts to use FU when none available
system.cpu0.iq.fu_full::SimdMultAcc                 0      0.00%     24.37% # attempts to use FU when none available
system.cpu0.iq.fu_full::SimdShift                   0      0.00%     24.37% # attempts to use FU when none available
system.cpu0.iq.fu_full::SimdShiftAcc                0      0.00%     24.37% # attempts to use FU when none available
system.cpu0.iq.fu_full::SimdSqrt                    0      0.00%     24.37% # attempts to use FU when none available
system.cpu0.iq.fu_full::SimdFloatAdd                0      0.00%     24.37% # attempts to use FU when none available
system.cpu0.iq.fu_full::SimdFloatAlu                0      0.00%     24.37% # attempts to use FU when none available
system.cpu0.iq.fu_full::SimdFloatCmp                0      0.00%     24.37% # attempts to use FU when none available
system.cpu0.iq.fu_full::SimdFloatCvt                0      0.00%     24.37% # attempts to use FU when none available
system.cpu0.iq.fu_full::SimdFloatDiv                0      0.00%     24.37% # attempts to use FU when none available
system.cpu0.iq.fu_full::SimdFloatMisc               0      0.00%     24.37% # attempts to use FU when none available
system.cpu0.iq.fu_full::SimdFloatMult               0      0.00%     24.37% # attempts to use FU when none available
system.cpu0.iq.fu_full::SimdFloatMultAcc            0      0.00%     24.37% # attempts to use FU when none available
system.cpu0.iq.fu_full::SimdFloatSqrt               0      0.00%     24.37% # attempts to use FU when none available
system.cpu0.iq.fu_full::MemRead                 17135     72.05%     96.43% # attempts to use FU when none available
system.cpu0.iq.fu_full::MemWrite                  701      2.95%     99.37% # attempts to use FU when none available
system.cpu0.iq.fu_full::FloatMemRead              100      0.42%     99.79% # attempts to use FU when none available
system.cpu0.iq.fu_full::FloatMemWrite              49      0.21%    100.00% # attempts to use FU when none available
system.cpu0.iq.fu_full::IprAccess                   0      0.00%    100.00% # attempts to use FU when none available
system.cpu0.iq.fu_full::InstPrefetch                0      0.00%    100.00% # attempts to use FU when none available
system.cpu0.iq.FU_type_0::No_OpClass             4255      0.03%      0.03% # Type of FU issued
system.cpu0.iq.FU_type_0::IntAlu             12016583     82.50%     82.53% # Type of FU issued
system.cpu0.iq.FU_type_0::IntMult                1860      0.01%     82.54% # Type of FU issued
system.cpu0.iq.FU_type_0::IntDiv                 1194      0.01%     82.55% # Type of FU issued
system.cpu0.iq.FU_type_0::FloatAdd               4189      0.03%     82.58% # Type of FU issued
system.cpu0.iq.FU_type_0::FloatCmp                  0      0.00%     82.58% # Type of FU issued
system.cpu0.iq.FU_type_0::FloatCvt                  0      0.00%     82.58% # Type of FU issued
system.cpu0.iq.FU_type_0::FloatMult                 0      0.00%     82.58% # Type of FU issued
system.cpu0.iq.FU_type_0::FloatMultAcc              0      0.00%     82.58% # Type of FU issued
system.cpu0.iq.FU_type_0::FloatDiv                  0      0.00%     82.58% # Type of FU issued
system.cpu0.iq.FU_type_0::FloatMisc                 0      0.00%     82.58% # Type of FU issued
system.cpu0.iq.FU_type_0::FloatSqrt                 0      0.00%     82.58% # Type of FU issued
system.cpu0.iq.FU_type_0::SimdAdd                   0      0.00%     82.58% # Type of FU issued
system.cpu0.iq.FU_type_0::SimdAddAcc                0      0.00%     82.58% # Type of FU issued
system.cpu0.iq.FU_type_0::SimdAlu                   0      0.00%     82.58% # Type of FU issued
system.cpu0.iq.FU_type_0::SimdCmp                   0      0.00%     82.58% # Type of FU issued
system.cpu0.iq.FU_type_0::SimdCvt                   0      0.00%     82.58% # Type of FU issued
system.cpu0.iq.FU_type_0::SimdMisc                  0      0.00%     82.58% # Type of FU issued
system.cpu0.iq.FU_type_0::SimdMult                  0      0.00%     82.58% # Type of FU issued
system.cpu0.iq.FU_type_0::SimdMultAcc               0      0.00%     82.58% # Type of FU issued
system.cpu0.iq.FU_type_0::SimdShift                 0      0.00%     82.58% # Type of FU issued
system.cpu0.iq.FU_type_0::SimdShiftAcc              0      0.00%     82.58% # Type of FU issued
system.cpu0.iq.FU_type_0::SimdSqrt                  0      0.00%     82.58% # Type of FU issued
system.cpu0.iq.FU_type_0::SimdFloatAdd              0      0.00%     82.58% # Type of FU issued
system.cpu0.iq.FU_type_0::SimdFloatAlu              0      0.00%     82.58% # Type of FU issued
system.cpu0.iq.FU_type_0::SimdFloatCmp              0      0.00%     82.58% # Type of FU issued
system.cpu0.iq.FU_type_0::SimdFloatCvt              0      0.00%     82.58% # Type of FU issued
system.cpu0.iq.FU_type_0::SimdFloatDiv              0      0.00%     82.58% # Type of FU issued
system.cpu0.iq.FU_type_0::SimdFloatMisc             0      0.00%     82.58% # Type of FU issued
system.cpu0.iq.FU_type_0::SimdFloatMult             0      0.00%     82.58% # Type of FU issued
system.cpu0.iq.FU_type_0::SimdFloatMultAcc            0      0.00%     82.58% # Type of FU issued
system.cpu0.iq.FU_type_0::SimdFloatSqrt             0      0.00%     82.58% # Type of FU issued
system.cpu0.iq.FU_type_0::MemRead             2514846     17.27%     99.84% # Type of FU issued
system.cpu0.iq.FU_type_0::MemWrite              19023      0.13%     99.97% # Type of FU issued
system.cpu0.iq.FU_type_0::FloatMemRead           3630      0.02%    100.00% # Type of FU issued
system.cpu0.iq.FU_type_0::FloatMemWrite           448      0.00%    100.00% # Type of FU issued
system.cpu0.iq.FU_type_0::IprAccess                 0      0.00%    100.00% # Type of FU issued
system.cpu0.iq.FU_type_0::InstPrefetch              0      0.00%    100.00% # Type of FU issued
system.cpu0.iq.FU_type_0::total              14566028                       # Type of FU issued
system.cpu0.iq.rate                          1.634014                       # Inst issue rate
system.cpu0.iq.fu_busy_cnt                      23781                       # FU busy when requested
system.cpu0.iq.fu_busy_rate                  0.001633                       # FU busy rate (busy events/executed inst)
system.cpu0.iq.int_inst_queue_reads          37981673                       # Number of integer instruction queue reads
system.cpu0.iq.int_inst_queue_writes         14889843                       # Number of integer instruction queue writes
system.cpu0.iq.int_inst_queue_wakeup_accesses     14410628                       # Number of integer instruction queue wakeup accesses
system.cpu0.iq.fp_inst_queue_reads              17242                       # Number of floating instruction queue reads
system.cpu0.iq.fp_inst_queue_writes             15510                       # Number of floating instruction queue writes
system.cpu0.iq.fp_inst_queue_wakeup_accesses         6074                       # Number of floating instruction queue wakeup accesses
system.cpu0.iq.int_alu_accesses              14576969                       # Number of integer alu accesses
system.cpu0.iq.fp_alu_accesses                   8585                       # Number of floating point alu accesses
system.cpu0.iew.lsq.thread0.forwLoads            9020                       # Number of loads that had data forwarded from stores
system.cpu0.iew.lsq.thread0.invAddrLoads            0                       # Number of loads ignored due to an invalid address
system.cpu0.iew.lsq.thread0.squashedLoads        47236                       # Number of loads squashed
system.cpu0.iew.lsq.thread0.ignoredResponses           24                       # Number of memory responses ignored because the instruction is squashed
system.cpu0.iew.lsq.thread0.memOrderViolation           75                       # Number of memory ordering violations
system.cpu0.iew.lsq.thread0.squashedStores        10228                       # Number of stores squashed
system.cpu0.iew.lsq.thread0.invAddrSwpfs            0                       # Number of software prefetches ignored due to an invalid address
system.cpu0.iew.lsq.thread0.blockedLoads            0                       # Number of blocked loads due to partial load-store forwarding
system.cpu0.iew.lsq.thread0.rescheduledLoads            7                       # Number of loads that were rescheduled
system.cpu0.iew.lsq.thread0.cacheBlocked       118618                       # Number of times an access to memory failed due to the cache being blocked
system.cpu0.iew.iewIdleCycles                       0                       # Number of cycles IEW is idle
system.cpu0.iew.iewSquashCycles                  8942                       # Number of cycles IEW is squashing
system.cpu0.iew.iewBlockCycles                 118838                       # Number of cycles IEW is blocking
system.cpu0.iew.iewUnblockCycles                 5962                       # Number of cycles IEW is unblocking
system.cpu0.iew.iewDispatchedInsts           14563923                       # Number of instructions dispatched to IQ
system.cpu0.iew.iewDispSquashedInsts             2246                       # Number of squashed instructions skipped by dispatch
system.cpu0.iew.iewDispLoadInsts              2413569                       # Number of dispatched load instructions
system.cpu0.iew.iewDispStoreInsts               24111                       # Number of dispatched store instructions
system.cpu0.iew.iewDispNonSpecInsts                82                       # Number of dispatched non-speculative instructions
system.cpu0.iew.iewIQFullEvents                   556                       # Number of times the IQ has become full, causing a stall
system.cpu0.iew.iewLSQFullEvents                 5023                       # Number of times the LSQ has become full, causing a stall
system.cpu0.iew.memOrderViolationEvents            75                       # Number of memory order violations
system.cpu0.iew.predictedTakenIncorrect          1969                       # Number of branches that were predicted taken incorrectly
system.cpu0.iew.predictedNotTakenIncorrect         9311                       # Number of branches that were predicted not taken incorrectly
system.cpu0.iew.branchMispredicts               11280                       # Number of branch mispredicts detected at execute
system.cpu0.iew.iewExecutedInsts             14544759                       # Number of executed instructions
system.cpu0.iew.iewExecLoadInsts              2512056                       # Number of load instructions executed
system.cpu0.iew.iewExecSquashedInsts            21269                       # Number of squashed instructions skipped in execute
system.cpu0.iew.exec_swp                            0                       # number of swp insts executed
system.cpu0.iew.exec_nop                            0                       # number of nop insts executed
system.cpu0.iew.exec_refs                     2530502                       # number of memory reference insts executed
system.cpu0.iew.exec_branches                 2364539                       # Number of branches executed
system.cpu0.iew.exec_stores                     18446                       # Number of stores executed
system.cpu0.iew.exec_rate                    1.631628                       # Inst execution rate
system.cpu0.iew.wb_sent                      14422031                       # cumulative count of insts sent to commit
system.cpu0.iew.wb_count                     14416702                       # cumulative count of insts written-back
system.cpu0.iew.wb_producers                 10699279                       # num instructions producing a value
system.cpu0.iew.wb_consumers                 14279708                       # num instructions consuming a value
system.cpu0.iew.wb_rate                      1.617263                       # insts written-back per cycle
system.cpu0.iew.wb_fanout                    0.749265                       # average fanout of values written-back
system.cpu0.commit.commitSquashedInsts         341492                       # The number of squashed insts skipped by commit
system.cpu0.commit.commitNonSpecStalls             42                       # The number of times commit has been forced to stall to communicate backwards
system.cpu0.commit.branchMispredicts             8887                       # The number of times a branch was mispredicted
system.cpu0.commit.committed_per_cycle::samples      8784321                       # Number of insts commited each cycle
system.cpu0.commit.committed_per_cycle::mean     1.619085                       # Number of insts commited each cycle
system.cpu0.commit.committed_per_cycle::stdev     2.708874                       # Number of insts commited each cycle
system.cpu0.commit.committed_per_cycle::underflows            0      0.00%      0.00% # Number of insts commited each cycle
system.cpu0.commit.committed_per_cycle::0      5222175     59.45%     59.45% # Number of insts commited each cycle
system.cpu0.commit.committed_per_cycle::1      1181881     13.45%     72.90% # Number of insts commited each cycle
system.cpu0.commit.committed_per_cycle::2        11578      0.13%     73.04% # Number of insts commited each cycle
system.cpu0.commit.committed_per_cycle::3      1175033     13.38%     86.41% # Number of insts commited each cycle
system.cpu0.commit.committed_per_cycle::4         8787      0.10%     86.51% # Number of insts commited each cycle
system.cpu0.commit.committed_per_cycle::5         5281      0.06%     86.57% # Number of insts commited each cycle
system.cpu0.commit.committed_per_cycle::6         2254      0.03%     86.60% # Number of insts commited each cycle
system.cpu0.commit.committed_per_cycle::7         1310      0.01%     86.61% # Number of insts commited each cycle
system.cpu0.commit.committed_per_cycle::8      1176022     13.39%    100.00% # Number of insts commited each cycle
system.cpu0.commit.committed_per_cycle::overflows            0      0.00%    100.00% # Number of insts commited each cycle
system.cpu0.commit.committed_per_cycle::min_value            0                       # Number of insts commited each cycle
system.cpu0.commit.committed_per_cycle::max_value            8                       # Number of insts commited each cycle
system.cpu0.commit.committed_per_cycle::total      8784321                       # Number of insts commited each cycle
system.cpu0.commit.committedInsts             7129737                       # Number of instructions committed
system.cpu0.commit.committedOps              14222559                       # Number of ops (including micro ops) committed
system.cpu0.commit.swp_count                        0                       # Number of s/w prefetches committed
system.cpu0.commit.refs                       2380216                       # Number of memory references committed
system.cpu0.commit.loads                      2366333                       # Number of loads committed
system.cpu0.commit.membars                          0                       # Number of memory barriers committed
system.cpu0.commit.branches                   2350895                       # Number of branches committed
system.cpu0.commit.fp_insts                      3646                       # Number of committed floating point instructions.
system.cpu0.commit.int_insts                 14219094                       # Number of committed integer instructions.
system.cpu0.commit.function_calls                 708                       # Number of function calls committed.
system.cpu0.commit.op_class_0::No_OpClass         1330      0.01%      0.01% # Class of committed instruction
system.cpu0.commit.op_class_0::IntAlu        11835645     83.22%     83.23% # Class of committed instruction
system.cpu0.commit.op_class_0::IntMult           1832      0.01%     83.24% # Class of committed instruction
system.cpu0.commit.op_class_0::IntDiv            1171      0.01%     83.25% # Class of committed instruction
system.cpu0.commit.op_class_0::FloatAdd          2365      0.02%     83.26% # Class of committed instruction
system.cpu0.commit.op_class_0::FloatCmp             0      0.00%     83.26% # Class of committed instruction
system.cpu0.commit.op_class_0::FloatCvt             0      0.00%     83.26% # Class of committed instruction
system.cpu0.commit.op_class_0::FloatMult            0      0.00%     83.26% # Class of committed instruction
system.cpu0.commit.op_class_0::FloatMultAcc            0      0.00%     83.26% # Class of committed instruction
system.cpu0.commit.op_class_0::FloatDiv             0      0.00%     83.26% # Class of committed instruction
system.cpu0.commit.op_class_0::FloatMisc            0      0.00%     83.26% # Class of committed instruction
system.cpu0.commit.op_class_0::FloatSqrt            0      0.00%     83.26% # Class of committed instruction
system.cpu0.commit.op_class_0::SimdAdd              0      0.00%     83.26% # Class of committed instruction
system.cpu0.commit.op_class_0::SimdAddAcc            0      0.00%     83.26% # Class of committed instruction
system.cpu0.commit.op_class_0::SimdAlu              0      0.00%     83.26% # Class of committed instruction
system.cpu0.commit.op_class_0::SimdCmp              0      0.00%     83.26% # Class of committed instruction
system.cpu0.commit.op_class_0::SimdCvt              0      0.00%     83.26% # Class of committed instruction
system.cpu0.commit.op_class_0::SimdMisc             0      0.00%     83.26% # Class of committed instruction
system.cpu0.commit.op_class_0::SimdMult             0      0.00%     83.26% # Class of committed instruction
system.cpu0.commit.op_class_0::SimdMultAcc            0      0.00%     83.26% # Class of committed instruction
system.cpu0.commit.op_class_0::SimdShift            0      0.00%     83.26% # Class of committed instruction
system.cpu0.commit.op_class_0::SimdShiftAcc            0      0.00%     83.26% # Class of committed instruction
system.cpu0.commit.op_class_0::SimdSqrt             0      0.00%     83.26% # Class of committed instruction
system.cpu0.commit.op_class_0::SimdFloatAdd            0      0.00%     83.26% # Class of committed instruction
system.cpu0.commit.op_class_0::SimdFloatAlu            0      0.00%     83.26% # Class of committed instruction
system.cpu0.commit.op_class_0::SimdFloatCmp            0      0.00%     83.26% # Class of committed instruction
system.cpu0.commit.op_class_0::SimdFloatCvt            0      0.00%     83.26% # Class of committed instruction
system.cpu0.commit.op_class_0::SimdFloatDiv            0      0.00%     83.26% # Class of committed instruction
system.cpu0.commit.op_class_0::SimdFloatMisc            0      0.00%     83.26% # Class of committed instruction
system.cpu0.commit.op_class_0::SimdFloatMult            0      0.00%     83.26% # Class of committed instruction
system.cpu0.commit.op_class_0::SimdFloatMultAcc            0      0.00%     83.26% # Class of committed instruction
system.cpu0.commit.op_class_0::SimdFloatSqrt            0      0.00%     83.26% # Class of committed instruction
system.cpu0.commit.op_class_0::MemRead        2365501     16.63%     99.90% # Class of committed instruction
system.cpu0.commit.op_class_0::MemWrite         13499      0.09%     99.99% # Class of committed instruction
system.cpu0.commit.op_class_0::FloatMemRead          832      0.01%    100.00% # Class of committed instruction
system.cpu0.commit.op_class_0::FloatMemWrite          384      0.00%    100.00% # Class of committed instruction
system.cpu0.commit.op_class_0::IprAccess            0      0.00%    100.00% # Class of committed instruction
system.cpu0.commit.op_class_0::InstPrefetch            0      0.00%    100.00% # Class of committed instruction
system.cpu0.commit.op_class_0::total         14222559                       # Class of committed instruction
system.cpu0.commit.bw_lim_events              1176022                       # number cycles where commit BW limit reached
system.cpu0.rob.rob_reads                    22172324                       # The number of ROB reads
system.cpu0.rob.rob_writes                   29180637                       # The number of ROB writes
system.cpu0.timesIdled                            771                       # Number of times that the entire CPU went into an idle state and unscheduled itself
system.cpu0.idleCycles                          78051                       # Total number of cycles that the CPU has spent unscheduled due to idling
system.cpu0.committedInsts                    7129737                       # Number of Instructions Simulated
system.cpu0.committedOps                     14222559                       # Number of Ops (including micro ops) Simulated
system.cpu0.cpi                              1.250293                       # CPI: Cycles Per Instruction
system.cpu0.cpi_total                        1.250293                       # CPI: Total CPI of All Threads
system.cpu0.ipc                              0.799813                       # IPC: Instructions Per Cycle
system.cpu0.ipc_total                        0.799813                       # IPC: Total IPC of All Threads
system.cpu0.int_regfile_reads                14851320                       # number of integer regfile reads
system.cpu0.int_regfile_writes               12031715                       # number of integer regfile writes
system.cpu0.fp_regfile_reads                     9142                       # number of floating regfile reads
system.cpu0.fp_regfile_writes                    5254                       # number of floating regfile writes
system.cpu0.cc_regfile_reads                  7200854                       # number of cc regfile reads
system.cpu0.cc_regfile_writes                 4821203                       # number of cc regfile writes
system.cpu0.misc_regfile_reads                8442357                       # number of misc regfile reads
system.cpu1.branchPred.lookups                4631032                       # Number of BP lookups
system.cpu1.branchPred.condPredicted          4631032                       # Number of conditional branches predicted
system.cpu1.branchPred.condIncorrect             8871                       # Number of conditional branches incorrect
system.cpu1.branchPred.BTBLookups             4372891                       # Number of BTB lookups
system.cpu1.branchPred.BTBHits                      0                       # Number of BTB hits
system.cpu1.branchPred.BTBCorrect                   0                       # Number of correct BTB predictions (this stat may not work properly.
system.cpu1.branchPred.BTBHitPct             0.000000                       # BTB Hit Percentage
system.cpu1.branchPred.usedRAS                 233733                       # Number of times the RAS was used to get a target.
system.cpu1.branchPred.RASInCorrect               496                       # Number of incorrect RAS predictions.
system.cpu1.branchPred.indirectLookups        4372891                       # Number of indirect predictor lookups.
system.cpu1.branchPred.indirectHits           2410214                       # Number of indirect target hits.
system.cpu1.branchPred.indirectMisses         1962677                       # Number of indirect misses.
system.cpu1.branchPredindirectMispredicted         4726                       # Number of mispredicted indirect branches.
system.cpu1.clk_domain.clock                      500                       # Clock period in ticks
system.cpu1.dtb.walker.pwrStateResidencyTicks::UNDEFINED  22515222000                       # Cumulative time (in ticks) in various power states
system.cpu1.apic_clk_domain.clock                8000                       # Clock period in ticks
system.cpu1.interrupts.pwrStateResidencyTicks::UNDEFINED  22515222000                       # Cumulative time (in ticks) in various power states
system.cpu1.itb.walker.pwrStateResidencyTicks::UNDEFINED  22515222000                       # Cumulative time (in ticks) in various power states
system.cpu1.workload.num_syscalls              231342                       # Number of system calls
system.cpu1.pwrStateResidencyTicks::ON    22515222000                       # Cumulative time (in ticks) in various power states
system.cpu1.numCycles                        28277700                       # number of cpu cycles simulated
system.cpu1.numWorkItemsStarted                     0                       # number of work items this cpu started
system.cpu1.numWorkItemsCompleted                   0                       # number of work items this cpu completed
system.cpu1.fetch.icacheStallCycles           1732767                       # Number of cycles fetch is stalled on an Icache miss
system.cpu1.fetch.Insts                      13621673                       # Number of instructions fetch has processed
system.cpu1.fetch.Branches                    4631032                       # Number of branches that fetch encountered
system.cpu1.fetch.predictedBranches           2643947                       # Number of branches that fetch has predicted taken
system.cpu1.fetch.Cycles                     26439971                       # Number of cycles fetch has run and was not squashing or blocked
system.cpu1.fetch.SquashCycles                  17879                       # Number of cycles fetch has spent squashing
system.cpu1.fetch.TlbCycles                         2                       # Number of cycles fetch has spent waiting for tlb
system.cpu1.fetch.MiscStallCycles               11367                       # Number of cycles fetch has spent waiting on interrupts, or bad addresses, or out of MSHRs
system.cpu1.fetch.NoActiveThreadStallCycles           10                       # Number of stall cycles due to no active thread to fetch from
system.cpu1.fetch.PendingTrapStallCycles          450                       # Number of stall cycles due to pending traps
system.cpu1.fetch.PendingQuiesceStallCycles           13                       # Number of stall cycles due to pending quiesce instructions
system.cpu1.fetch.IcacheWaitRetryStallCycles         6889                       # Number of stall cycles due to full MSHR
system.cpu1.fetch.CacheLines                  1705183                       # Number of cache lines fetched
system.cpu1.fetch.IcacheSquashes                 2694                       # Number of outstanding Icache misses that were squashed
system.cpu1.fetch.rateDist::samples          28200408                       # Number of instructions fetched each cycle (Total)
system.cpu1.fetch.rateDist::mean             0.961122                       # Number of instructions fetched each cycle (Total)
system.cpu1.fetch.rateDist::stdev            2.325937                       # Number of instructions fetched each cycle (Total)
system.cpu1.fetch.rateDist::underflows              0      0.00%      0.00% # Number of instructions fetched each cycle (Total)
system.cpu1.fetch.rateDist::0                23359844     82.84%     82.84% # Number of instructions fetched each cycle (Total)
system.cpu1.fetch.rateDist::1                  358131      1.27%     84.11% # Number of instructions fetched each cycle (Total)
system.cpu1.fetch.rateDist::2                  120080      0.43%     84.53% # Number of instructions fetched each cycle (Total)
system.cpu1.fetch.rateDist::3                  357365      1.27%     85.80% # Number of instructions fetched each cycle (Total)
system.cpu1.fetch.rateDist::4                 1337377      4.74%     90.54% # Number of instructions fetched each cycle (Total)
system.cpu1.fetch.rateDist::5                  134163      0.48%     91.02% # Number of instructions fetched each cycle (Total)
system.cpu1.fetch.rateDist::6                  240195      0.85%     91.87% # Number of instructions fetched each cycle (Total)
system.cpu1.fetch.rateDist::7                  373868      1.33%     93.19% # Number of instructions fetched each cycle (Total)
system.cpu1.fetch.rateDist::8                 1919385      6.81%    100.00% # Number of instructions fetched each cycle (Total)
system.cpu1.fetch.rateDist::overflows               0      0.00%    100.00% # Number of instructions fetched each cycle (Total)
system.cpu1.fetch.rateDist::min_value               0                       # Number of instructions fetched each cycle (Total)
system.cpu1.fetch.rateDist::max_value               8                       # Number of instructions fetched each cycle (Total)
system.cpu1.fetch.rateDist::total            28200408                       # Number of instructions fetched each cycle (Total)
system.cpu1.fetch.branchRate                 0.163770                       # Number of branch fetches per cycle
system.cpu1.fetch.rate                       0.481711                       # Number of inst fetches per cycle
system.cpu1.decode.IdleCycles                  995930                       # Number of cycles decode is idle
system.cpu1.decode.BlockedCycles             23514582                       # Number of cycles decode is blocked
system.cpu1.decode.RunCycles                  1308831                       # Number of cycles decode is running
system.cpu1.decode.UnblockCycles              2372116                       # Number of cycles decode is unblocking
system.cpu1.decode.SquashCycles                  8939                       # Number of cycles decode is squashing
system.cpu1.decode.DecodedInsts              27017187                       # Number of instructions handled by decode
system.cpu1.rename.SquashCycles                  8939                       # Number of cycles rename is squashing
system.cpu1.rename.IdleCycles                 1510080                       # Number of cycles rename is idle
system.cpu1.rename.BlockCycles                4274256                       # Number of cycles rename is blocking
system.cpu1.rename.serializeStallCycles      15770220                       # count of cycles rename stalled for serializing inst
system.cpu1.rename.RunCycles                  2120741                       # Number of cycles rename is running
system.cpu1.rename.UnblockCycles              4516162                       # Number of cycles rename is unblocking
system.cpu1.rename.RenamedInsts              26973573                       # Number of instructions processed by rename
system.cpu1.rename.ROBFullEvents              2513487                       # Number of times rename has blocked due to ROB full
system.cpu1.rename.IQFullEvents                 13240                       # Number of times rename has blocked due to IQ full
system.cpu1.rename.LQFullEvents               1015431                       # Number of times rename has blocked due to LQ full
system.cpu1.rename.SQFullEvents                182424                       # Number of times rename has blocked due to SQ full
system.cpu1.rename.RenamedOperands           29750808                       # Number of destination operands rename has renamed
system.cpu1.rename.RenameLookups             60150282                       # Number of register rename lookups that rename has made
system.cpu1.rename.int_rename_lookups        29906133                       # Number of integer rename lookups
system.cpu1.rename.fp_rename_lookups            17810                       # Number of floating rename lookups
system.cpu1.rename.CommittedMaps             29232509                       # Number of HB maps that are committed
system.cpu1.rename.UndoneMaps                  518299                       # Number of HB maps that are undone due to squashing
system.cpu1.rename.serializingInsts            231380                       # count of serializing insts renamed
system.cpu1.rename.tempSerializingInsts        231384                       # count of temporary serializing insts renamed
system.cpu1.rename.skidInsts                 14915769                       # count of insts added to the skid buffer
system.cpu1.memDep0.insertedLoads             4057003                       # Number of loads inserted to the mem dependence unit.
system.cpu1.memDep0.insertedStores             289128                       # Number of stores inserted to the mem dependence unit.
system.cpu1.memDep0.conflictingLoads            25882                       # Number of conflicting loads.
system.cpu1.memDep0.conflictingStores             282                       # Number of conflicting stores.
system.cpu1.iq.iqInstsAdded                  26665165                       # Number of instructions added to the IQ (excludes non-spec)
system.cpu1.iq.iqNonSpecInstsAdded             231423                       # Number of non-speculative instructions added to the IQ
system.cpu1.iq.iqInstsIssued                 26941473                       # Number of instructions issued
system.cpu1.iq.iqSquashedInstsIssued             6920                       # Number of squashed instructions issued
system.cpu1.iq.iqSquashedInstsExamined         342230                       # Number of squashed instructions iterated over during squash; mainly for profiling
system.cpu1.iq.iqSquashedOperandsExamined       514846                       # Number of squashed operands that are examined and possibly removed from graph
[...]
system.ruby.L1Cache_Controller.S.Transient_Local_GETX::total            2                      
system.ruby.L1Cache_Controller.S.Transient_Local_GETS_Last_Token |           0      0.00%      0.00% |           1     50.00%     50.00% |           0      0.00%     50.00% |           1     50.00%    100.00% |           0      0.00%    100.00%
system.ruby.L1Cache_Controller.S.Transient_Local_GETS_Last_Token::total            2                      
system.ruby.L1Cache_Controller.O.Load    |     1152671     48.86%     48.86% |           0      0.00%     48.86% |     1206406     51.14%    100.00% |           0      0.00%    100.00% |           0      0.00%    100.00%
system.ruby.L1Cache_Controller.O.Load::total      2359077                      
system.ruby.L1Cache_Controller.O.Transient_Local_GETX |           1     50.00%     50.00% |           0      0.00%     50.00% |           1     50.00%    100.00% |           0      0.00%    100.00% |           0      0.00%    100.00%
system.ruby.L1Cache_Controller.O.Transient_Local_GETX::total            2                      
system.ruby.L1Cache_Controller.O.Own_Lock_or_Unlock |           1     50.00%     50.00% |           0      0.00%     50.00% |           1     50.00%    100.00% |           0      0.00%    100.00% |           0      0.00%    100.00%
system.ruby.L1Cache_Controller.O.Own_Lock_or_Unlock::total            2                      
system.ruby.L1Cache_Controller.M.Load    |       22694      3.04%      3.04% |      108657     14.58%     17.62% |       75480     10.13%     27.75% |      494422     66.33%     94.08% |       44153      5.92%    100.00%
system.ruby.L1Cache_Controller.M.Load::total       745406                      
system.ruby.L1Cache_Controller.M.Ifetch  |       49519      2.24%      2.24% |      545749     24.63%     26.87% |      289336     13.06%     39.93% |     1330845     60.07%    100.00% |           0      0.00%    100.00%
system.ruby.L1Cache_Controller.M.Ifetch::total      2215449                      
system.ruby.L1Cache_Controller.M.Store   |          47      3.50%      3.50% |          43      3.20%      6.70% |          46      3.42%     10.12% |          45      3.35%     13.47% |        1163     86.53%    100.00%
system.ruby.L1Cache_Controller.M.Store::total         1344                      
system.ruby.L1Cache_Controller.M.L1_Replacement |        1822     16.04%     16.04% |        2522     22.20%     38.24% |        2508     22.08%     60.31% |        2519     22.17%     82.48% |        1990     17.52%    100.00%
system.ruby.L1Cache_Controller.M.L1_Replacement::total        11361                      
system.ruby.L1Cache_Controller.M.Persistent_GETX |           0      0.00%      0.00% |           1     33.33%     33.33% |           1     33.33%     66.67% |           1     33.33%    100.00% |           0      0.00%    100.00%
system.ruby.L1Cache_Controller.M.Persistent_GETX::total            3                      
system.ruby.L1Cache_Controller.M.Persistent_GETS |           0      0.00%      0.00% |           0      0.00%      0.00% |           0      0.00%      0.00% |           0      0.00%      0.00% |           2    100.00%    100.00%
system.ruby.L1Cache_Controller.M.Persistent_GETS::total            2                      
system.ruby.L1Cache_Controller.M.Own_Lock_or_Unlock |         169     25.19%     25.19% |         168     25.04%     50.22% |         174     25.93%     76.15% |         160     23.85%    100.00% |           0      0.00%    100.00%
system.ruby.L1Cache_Controller.M.Own_Lock_or_Unlock::total          671                      
system.ruby.L1Cache_Controller.MM.Load   |       28477      2.07%      2.07% |      336791     24.52%     26.59% |      187156     13.62%     40.22% |      821206     59.78%    100.00% |           0      0.00%    100.00%
system.ruby.L1Cache_Controller.MM.Load::total      1373630                      
system.ruby.L1Cache_Controller.MM.Store  |       10926      1.01%      1.01% |      267700     24.82%     25.83% |      136993     12.70%     38.53% |      515615     47.80%     86.33% |      147456     13.67%    100.00%
system.ruby.L1Cache_Controller.MM.Store::total      1078690                      
system.ruby.L1Cache_Controller.MM.L1_Replacement |         533      2.80%      2.80% |        1091      5.73%      8.52% |         609      3.20%     11.72% |        7398     38.82%     50.54% |        9424     49.46%    100.00%
system.ruby.L1Cache_Controller.MM.L1_Replacement::total        19055                      
system.ruby.L1Cache_Controller.MM.Transient_Local_GETS |         113      3.58%      3.58% |        1020     32.33%     35.91% |        1006     31.89%     67.80% |        1016     32.20%    100.00% |           0      0.00%    100.00%
system.ruby.L1Cache_Controller.MM.Transient_Local_GETS::total         3155                      
system.ruby.L1Cache_Controller.MM.Persistent_GETS |           0      0.00%      0.00% |           0      0.00%      0.00% |           0      0.00%      0.00% |           0      0.00%      0.00% |           7    100.00%    100.00%
system.ruby.L1Cache_Controller.MM.Persistent_GETS::total            7                      
system.ruby.L1Cache_Controller.MM.Own_Lock_or_Unlock |          26      8.61%      8.61% |          72     23.84%     32.45% |          52     17.22%     49.67% |         149     49.34%     99.01% |           3      0.99%    100.00%
system.ruby.L1Cache_Controller.MM.Own_Lock_or_Unlock::total          302                      
system.ruby.L1Cache_Controller.M_W.Load  |       11246     23.43%     23.43% |       11185     23.30%     46.73% |       11271     23.48%     70.21% |       11148     23.22%     93.43% |        3155      6.57%    100.00%
system.ruby.L1Cache_Controller.M_W.Load::total        48005                      
system.ruby.L1Cache_Controller.M_W.Ifetch |         419     24.85%     24.85% |         427     25.33%     50.18% |         426     25.27%     75.44% |         414     24.56%    100.00% |           0      0.00%    100.00%
system.ruby.L1Cache_Controller.M_W.Ifetch::total         1686                      
system.ruby.L1Cache_Controller.M_W.Store |           9     22.50%     22.50% |          10     25.00%     47.50% |           9     22.50%     70.00% |          12     30.00%    100.00% |           0      0.00%    100.00%
system.ruby.L1Cache_Controller.M_W.Store::total           40                      
system.ruby.L1Cache_Controller.M_W.L1_Replacement |           0      0.00%      0.00% |           0      0.00%      0.00% |           1    100.00%    100.00% |           0      0.00%    100.00% |           0      0.00%    100.00%
system.ruby.L1Cache_Controller.M_W.L1_Replacement::total            1                      
system.ruby.L1Cache_Controller.M_W.Transient_Local_GETX |           0      0.00%      0.00% |           1     33.33%     33.33% |           1     33.33%     66.67% |           1     33.33%    100.00% |           0      0.00%    100.00%
system.ruby.L1Cache_Controller.M_W.Transient_Local_GETX::total            3                      
system.ruby.L1Cache_Controller.M_W.Transient_Local_GETS |           0      0.00%      0.00% |           0      0.00%      0.00% |           0      0.00%      0.00% |           0      0.00%      0.00% |           2    100.00%    100.00%
system.ruby.L1Cache_Controller.M_W.Transient_Local_GETS::total            2                      
system.ruby.L1Cache_Controller.M_W.Own_Lock_or_Unlock |          19     18.10%     18.10% |          26     24.76%     42.86% |          32     30.48%     73.33% |          28     26.67%    100.00% |           0      0.00%    100.00%
system.ruby.L1Cache_Controller.M_W.Own_Lock_or_Unlock::total          105                      
system.ruby.L1Cache_Controller.M_W.Use_TimeoutNoStarvers |        3032     19.87%     19.87% |        3025     19.83%     39.70% |        3025     19.83%     59.52% |        3021     19.80%     79.32% |        3155     20.68%    100.00%
system.ruby.L1Cache_Controller.M_W.Use_TimeoutNoStarvers::total        15258                      
system.ruby.L1Cache_Controller.MM_W.Load |          35     21.21%     21.21% |          47     28.48%     49.70% |          49     29.70%     79.39% |          34     20.61%    100.00% |           0      0.00%    100.00%
system.ruby.L1Cache_Controller.MM_W.Load::total          165                      
system.ruby.L1Cache_Controller.MM_W.Store |        2632      3.78%      3.78% |        9574     13.75%     17.53% |        7104     10.20%     27.74% |       41024     58.92%     86.66% |        9289     13.34%    100.00%
system.ruby.L1Cache_Controller.MM_W.Store::total        69623                      
system.ruby.L1Cache_Controller.MM_W.Transient_Local_GETS |           0      0.00%      0.00% |           0      0.00%      0.00% |           0      0.00%      0.00% |           0      0.00%      0.00% |           6    100.00%    100.00%
system.ruby.L1Cache_Controller.MM_W.Transient_Local_GETS::total            6                      
system.ruby.L1Cache_Controller.MM_W.Own_Lock_or_Unlock |           8     26.67%     26.67% |           8     26.67%     53.33% |           6     20.00%     73.33% |           8     26.67%    100.00% |           0      0.00%    100.00%
system.ruby.L1Cache_Controller.MM_W.Own_Lock_or_Unlock::total           30                      
system.ruby.L1Cache_Controller.MM_W.Use_TimeoutNoStarvers |         686      3.11%      3.11% |        2093      9.49%     12.60% |        1596      7.23%     19.83% |        8394     38.05%     57.88% |        9292     42.12%    100.00%
system.ruby.L1Cache_Controller.MM_W.Use_TimeoutNoStarvers::total        22061                      
system.ruby.L1Cache_Controller.IM.Data_All_Tokens |         633      2.90%      2.90% |        2034      9.32%     12.22% |        1537      7.04%     19.27% |        8333     38.19%     57.46% |        9283     42.54%    100.00%
system.ruby.L1Cache_Controller.IM.Data_All_Tokens::total        21820                      
system.ruby.L1Cache_Controller.IM.Ack    |           0      0.00%      0.00% |           0      0.00%      0.00% |           0      0.00%      0.00% |           0      0.00%      0.00% |           2    100.00%    100.00%
system.ruby.L1Cache_Controller.IM.Ack::total            2                      
system.ruby.L1Cache_Controller.IM.Transient_Local_GETS_Last_Token |           0      0.00%      0.00% |           0      0.00%      0.00% |           0      0.00%      0.00% |           0      0.00%      0.00% |           1    100.00%    100.00%
system.ruby.L1Cache_Controller.IM.Transient_Local_GETS_Last_Token::total            1                      
system.ruby.L1Cache_Controller.IM.Own_Lock_or_Unlock |          18      6.69%      6.69% |          64     23.79%     30.48% |          44     16.36%     46.84% |         140     52.04%     98.88% |           3      1.12%    100.00%
system.ruby.L1Cache_Controller.IM.Own_Lock_or_Unlock::total          269                      
system.ruby.L1Cache_Controller.IM.Request_Timeout |         177     18.02%     18.02% |         226     23.01%     41.04% |         248     25.25%     66.29% |         328     33.40%     99.69% |           3      0.31%    100.00%
system.ruby.L1Cache_Controller.IM.Request_Timeout::total          982                      
system.ruby.L1Cache_Controller.SM.Data_All_Tokens |          44     21.89%     21.89% |          49     24.38%     46.27% |          50     24.88%     71.14% |          49     24.38%     95.52% |           9      4.48%    100.00%
system.ruby.L1Cache_Controller.SM.Data_All_Tokens::total          201                      
system.ruby.L1Cache_Controller.IS.L1_Replacement |           0      0.00%      0.00% |           1    100.00%    100.00% |           0      0.00%    100.00% |           0      0.00%    100.00% |           0      0.00%    100.00%
system.ruby.L1Cache_Controller.IS.L1_Replacement::total            1                      
system.ruby.L1Cache_Controller.IS.Data_Shared |         390      4.36%      4.36% |         437      4.89%      9.25% |         399      4.46%     13.71% |         419      4.69%     18.40% |        7297     81.60%    100.00%
system.ruby.L1Cache_Controller.IS.Data_Shared::total         8942                      
system.ruby.L1Cache_Controller.IS.Data_Owner |           1     50.00%     50.00% |           0      0.00%     50.00% |           1     50.00%    100.00% |           0      0.00%    100.00% |           0      0.00%    100.00%
system.ruby.L1Cache_Controller.IS.Data_Owner::total            2                      
system.ruby.L1Cache_Controller.IS.Data_All_Tokens |        3041     19.87%     19.87% |        3035     19.84%     39.71% |        3034     19.83%     59.54% |        3036     19.84%     79.38% |        3155     20.62%    100.00%
system.ruby.L1Cache_Controller.IS.Data_All_Tokens::total        15301                      
system.ruby.L1Cache_Controller.IS.Own_Lock_or_Unlock |         151     26.40%     26.40% |         142     24.83%     51.22% |         145     25.35%     76.57% |         134     23.43%    100.00% |           0      0.00%    100.00%
system.ruby.L1Cache_Controller.IS.Own_Lock_or_Unlock::total          572                      
system.ruby.L1Cache_Controller.IS.Request_Timeout |        1158     25.40%     25.40% |        1152     25.27%     50.67% |        1288     28.25%     78.92% |         961     21.08%    100.00% |           0      0.00%    100.00%
system.ruby.L1Cache_Controller.IS.Request_Timeout::total         4559                      
system.ruby.L1Cache_Controller.I_L.Load  |           0      0.00%      0.00% |           1     33.33%     33.33% |           1     33.33%     66.67% |           1     33.33%    100.00% |           0      0.00%    100.00%
system.ruby.L1Cache_Controller.I_L.Load::total            3                      
system.ruby.L1Cache_Controller.I_L.Store |           0      0.00%      0.00% |           0      0.00%      0.00% |           0      0.00%      0.00% |           0      0.00%      0.00% |           3    100.00%    100.00%
system.ruby.L1Cache_Controller.I_L.Store::total            3                      
system.ruby.L1Cache_Controller.I_L.Transient_Local_GETX |           3     33.33%     33.33% |           2     22.22%     55.56% |           2     22.22%     77.78% |           2     22.22%    100.00% |           0      0.00%    100.00%
system.ruby.L1Cache_Controller.I_L.Transient_Local_GETX::total            9                      
system.ruby.L1Cache_Controller.I_L.Transient_Local_GETS |           3     33.33%     33.33% |           2     22.22%     55.56% |           2     22.22%     77.78% |           2     22.22%    100.00% |           0      0.00%    100.00%
system.ruby.L1Cache_Controller.I_L.Transient_Local_GETS::total            9                      
system.ruby.L1Cache_Controller.I_L.Persistent_GETX |         273     22.88%     22.88% |         226     18.94%     41.83% |         248     20.79%     62.62% |         150     12.57%     75.19% |         296     24.81%    100.00%
system.ruby.L1Cache_Controller.I_L.Persistent_GETX::total         1193                      
system.ruby.L1Cache_Controller.I_L.Persistent_GETS |         507     18.78%     18.78% |         509     18.86%     37.64% |         500     18.53%     56.17% |         515     19.08%     75.25% |         668     24.75%    100.00%
system.ruby.L1Cache_Controller.I_L.Persistent_GETS::total         2699                      
system.ruby.L1Cache_Controller.I_L.Own_Lock_or_Unlock |           0      0.00%      0.00% |           0      0.00%      0.00% |           0      0.00%      0.00% |           0      0.00%      0.00% |           4    100.00%    100.00%
system.ruby.L1Cache_Controller.I_L.Own_Lock_or_Unlock::total            4                      
system.ruby.L1Cache_Controller.S_L.Load  |           0      0.00%      0.00% |           0      0.00%      0.00% |           0      0.00%      0.00% |           0      0.00%      0.00% |           1    100.00%    100.00%
system.ruby.L1Cache_Controller.S_L.Load::total            1                      
system.ruby.L1Cache_Controller.S_L.Own_Lock_or_Unlock |           0      0.00%      0.00% |           0      0.00%      0.00% |           0      0.00%      0.00% |           0      0.00%      0.00% |           2    100.00%    100.00%
system.ruby.L1Cache_Controller.S_L.Own_Lock_or_Unlock::total            2                      
system.ruby.L1Cache_Controller.IM_L.Own_Lock_or_Unlock |           0      0.00%      0.00% |           0      0.00%      0.00% |           0      0.00%      0.00% |           0      0.00%      0.00% |           3    100.00%    100.00%
system.ruby.L1Cache_Controller.IM_L.Own_Lock_or_Unlock::total            3                      
system.ruby.L1Cache_Controller.IS_L.Own_Lock_or_Unlock |           0      0.00%      0.00% |           1     33.33%     33.33% |           1     33.33%     66.67% |           1     33.33%    100.00% |           0      0.00%    100.00%
system.ruby.L1Cache_Controller.IS_L.Own_Lock_or_Unlock::total            3                      
system.ruby.L2Cache_Controller.L1_GETS          24245      0.00%      0.00%
system.ruby.L2Cache_Controller.L1_GETX          22021      0.00%      0.00%
system.ruby.L2Cache_Controller.L1_INV            3169      0.00%      0.00%
system.ruby.L2Cache_Controller.L2_Replacement           12      0.00%      0.00%
system.ruby.L2Cache_Controller.Writeback_Shared_Data            3      0.00%      0.00%
system.ruby.L2Cache_Controller.Writeback_All_Tokens        38693      0.00%      0.00%
system.ruby.L2Cache_Controller.Persistent_GETX          299      0.00%      0.00%
system.ruby.L2Cache_Controller.Persistent_GETS          677      0.00%      0.00%
system.ruby.L2Cache_Controller.Own_Lock_or_Unlock          975      0.00%      0.00%
system.ruby.L2Cache_Controller.NP.L1_GETS        15290      0.00%      0.00%
system.ruby.L2Cache_Controller.NP.L1_GETX        12325      0.00%      0.00%
system.ruby.L2Cache_Controller.NP.L1_INV         3151      0.00%      0.00%
system.ruby.L2Cache_Controller.NP.Writeback_All_Tokens        21870      0.00%      0.00%
system.ruby.L2Cache_Controller.NP.Own_Lock_or_Unlock          963      0.00%      0.00%
system.ruby.L2Cache_Controller.I.L1_GETS           10      0.00%      0.00%
system.ruby.L2Cache_Controller.I.L1_GETX            2      0.00%      0.00%
system.ruby.L2Cache_Controller.I.L1_INV             8      0.00%      0.00%
system.ruby.L2Cache_Controller.I.Writeback_All_Tokens         8546      0.00%      0.00%
system.ruby.L2Cache_Controller.I.Persistent_GETX            3      0.00%      0.00%
system.ruby.L2Cache_Controller.I.Persistent_GETS            9      0.00%      0.00%
system.ruby.L2Cache_Controller.O.L1_GETS            3      0.00%      0.00%
system.ruby.L2Cache_Controller.O.L1_GETX          201      0.00%      0.00%
system.ruby.L2Cache_Controller.O.Writeback_Shared_Data            3      0.00%      0.00%
system.ruby.L2Cache_Controller.O.Writeback_All_Tokens         8277      0.00%      0.00%
system.ruby.L2Cache_Controller.M.L1_GETS         8939      0.00%      0.00%
system.ruby.L2Cache_Controller.M.L1_GETX         9490      0.00%      0.00%
system.ruby.L2Cache_Controller.M.L2_Replacement           12      0.00%      0.00%
system.ruby.L2Cache_Controller.I_L.L1_GETS            3      0.00%      0.00%
system.ruby.L2Cache_Controller.I_L.L1_GETX            3      0.00%      0.00%
system.ruby.L2Cache_Controller.I_L.L1_INV           10      0.00%      0.00%
system.ruby.L2Cache_Controller.I_L.Persistent_GETX          296      0.00%      0.00%
system.ruby.L2Cache_Controller.I_L.Persistent_GETS          668      0.00%      0.00%
system.ruby.L2Cache_Controller.I_L.Own_Lock_or_Unlock           12      0.00%      0.00%

---------- End Simulation Statistics   ----------
