
---------- Begin Simulation Statistics ----------
sim_seconds                                  0.035931                       # Number of seconds simulated
sim_ticks                                 35931052000                       # Number of ticks simulated
final_tick                                35931052000                       # Number of ticks from beginning of simulation (restored from checkpoints and never reset)
sim_freq                                 1000000000000                       # Frequency of simulated ticks
host_inst_rate                                  52358                       # Simulator instruction rate (inst/s)
host_op_rate                                   104621                       # Simulator op (including micro ops) rate (op/s)
host_tick_rate                               21186813                       # Simulator tick rate (ticks/s)
host_mem_usage                                 847628                       # Number of bytes of host memory used
host_seconds                                  1695.92                       # Real time elapsed on the host
sim_insts                                    88795283                       # Number of instructions simulated
sim_ops                                     177428672                       # Number of ops (including micro ops) simulated
system.voltage_domain.voltage                       1                       # Voltage in Volts
system.clk_domain.clock                          1000                       # Clock period in ticks
system.mem_ctrls.pwrStateResidencyTicks::UNDEFINED  35931052000                       # Cumulative time (in ticks) in various power states
system.mem_ctrls.bytes_read::ruby.dir_cntrl0       909696                       # Number of bytes read from this memory
system.mem_ctrls.bytes_read::total             909696                       # Number of bytes read from this memory
system.mem_ctrls.num_reads::ruby.dir_cntrl0        14214                       # Number of read requests responded to by this memory
system.mem_ctrls.num_reads::total               14214                       # Number of read requests responded to by this memory
system.mem_ctrls.bw_read::ruby.dir_cntrl0     25317823                       # Total read bandwidth from this memory (bytes/s)
system.mem_ctrls.bw_read::total              25317823                       # Total read bandwidth from this memory (bytes/s)
system.mem_ctrls.bw_total::ruby.dir_cntrl0     25317823                       # Total bandwidth to/from this memory (bytes/s)
system.mem_ctrls.bw_total::total             25317823                       # Total bandwidth to/from this memory (bytes/s)
system.mem_ctrls.readReqs                       14214                       # Number of read requests accepted
system.mem_ctrls.avgNetLat                       0.00                       # Average network latency to DRAM controller
system.mem_ctrls.writeReqs                          0                       # Number of write requests accepted
system.mem_ctrls.readBursts                     14214                       # Number of DRAM read bursts, including those serviced by the write queue
system.mem_ctrls.writeBursts                        0                       # Number of DRAM write bursts, including those merged in the write queue
system.mem_ctrls.bytesReadDRAM                 909696                       # Total number of bytes read from DRAM
system.mem_ctrls.bytesReadWrQ                       0                       # Total number of bytes read from write queue
system.mem_ctrls.bytesWritten                       0                       # Total number of bytes written to DRAM
system.mem_ctrls.bytesReadSys                  909696                       # Total read bytes from the system interface side
system.mem_ctrls.bytesWrittenSys                    0                       # Total written bytes from the system interface side
system.mem_ctrls.servicedByWrQ                      0                       # Number of DRAM read bursts serviced by the write queue
system.mem_ctrls.mergedWrBursts                     0                       # Number of DRAM write bursts merged with an existing one
system.mem_ctrls.neitherReadNorWriteReqs            0                       # Number of requests that are neither read nor write
system.mem_ctrls.perBankRdBursts::0              1012                       # Per bank write bursts
system.mem_ctrls.perBankRdBursts::1               800                       # Per bank write bursts
system.mem_ctrls.perBankRdBursts::2               826                       # Per bank write bursts
system.mem_ctrls.perBankRdBursts::3               791                       # Per bank write bursts
system.mem_ctrls.perBankRdBursts::4               752                       # Per bank write bursts
system.mem_ctrls.perBankRdBursts::5               931                       # Per bank write bursts
system.mem_ctrls.perBankRdBursts::6               933                       # Per bank write bursts
system.mem_ctrls.perBankRdBursts::7               822                       # Per bank write bursts
system.mem_ctrls.perBankRdBursts::8               870                       # Per bank write bursts
system.mem_ctrls.perBankRdBursts::9               905                       # Per bank write bursts
system.mem_ctrls.perBankRdBursts::10              951                       # Per bank write bursts
system.mem_ctrls.perBankRdBursts::11              861                       # Per bank write bursts
system.mem_ctrls.perBankRdBursts::12              746                       # Per bank write bursts
system.mem_ctrls.perBankRdBursts::13             1023                       # Per bank write bursts
system.mem_ctrls.perBankRdBursts::14             1044                       # Per bank write bursts
system.mem_ctrls.perBankRdBursts::15              947                       # Per bank write bursts
system.mem_ctrls.perBankWrBursts::0                 0                       # Per bank write bursts
system.mem_ctrls.perBankWrBursts::1                 0                       # Per bank write bursts
system.mem_ctrls.perBankWrBursts::2                 0                       # Per bank write bursts
system.mem_ctrls.perBankWrBursts::3                 0                       # Per bank write bursts
system.mem_ctrls.perBankWrBursts::4                 0                       # Per bank write bursts
system.mem_ctrls.perBankWrBursts::5                 0                       # Per bank write bursts
system.mem_ctrls.perBankWrBursts::6                 0                       # Per bank write bursts
system.mem_ctrls.perBankWrBursts::7                 0                       # Per bank write bursts
system.mem_ctrls.perBankWrBursts::8                 0                       # Per bank write bursts
system.mem_ctrls.perBankWrBursts::9                 0                       # Per bank write bursts
system.mem_ctrls.perBankWrBursts::10                0                       # Per bank write bursts
system.mem_ctrls.perBankWrBursts::11                0                       # Per bank write bursts
system.mem_ctrls.perBankWrBursts::12                0                       # Per bank write bursts
system.mem_ctrls.perBankWrBursts::13                0                       # Per bank write bursts
system.mem_ctrls.perBankWrBursts::14                0                       # Per bank write bursts
system.mem_ctrls.perBankWrBursts::15                0                       # Per bank write bursts
system.mem_ctrls.numRdRetry                         0                       # Number of times read queue was full causing retry
system.mem_ctrls.numWrRetry                         0                       # Number of times write queue was full causing retry
system.mem_ctrls.totGap                   35930983500                       # Total gap between requests
system.mem_ctrls.readPktSize::0                     0                       # Read request sizes (log2)
system.mem_ctrls.readPktSize::1                     0                       # Read request sizes (log2)
system.mem_ctrls.readPktSize::2                     0                       # Read request sizes (log2)
system.mem_ctrls.readPktSize::3                     0                       # Read request sizes (log2)
system.mem_ctrls.readPktSize::4                     0                       # Read request sizes (log2)
system.mem_ctrls.readPktSize::5                     0                       # Read request sizes (log2)
system.mem_ctrls.readPktSize::6                 14214                       # Read request sizes (log2)
system.mem_ctrls.writePktSize::0                    0                       # Write request sizes (log2)
system.mem_ctrls.writePktSize::1                    0                       # Write request sizes (log2)
system.mem_ctrls.writePktSize::2                    0                       # Write request sizes (log2)
system.mem_ctrls.writePktSize::3                    0                       # Write request sizes (log2)
system.mem_ctrls.writePktSize::4                    0                       # Write request sizes (log2)
system.mem_ctrls.writePktSize::5                    0                       # Write request sizes (log2)
system.mem_ctrls.writePktSize::6                    0                       # Write request sizes (log2)
system.mem_ctrls.rdQLenPdf::0                    1958                       # What read queue length does an incoming req see
system.mem_ctrls.rdQLenPdf::1                    2733                       # What read queue length does an incoming req see
system.mem_ctrls.rdQLenPdf::2                    2409                       # What read queue length does an incoming req see
system.mem_ctrls.rdQLenPdf::3                    1785                       # What read queue length does an incoming req see
system.mem_ctrls.rdQLenPdf::4                    1289                       # What read queue length does an incoming req see
system.mem_ctrls.rdQLenPdf::5                     973                       # What read queue length does an incoming req see
system.mem_ctrls.rdQLenPdf::6                     825                       # What read queue length does an incoming req see
system.mem_ctrls.rdQLenPdf::7                     706                       # What read queue length does an incoming req see
system.mem_ctrls.rdQLenPdf::8                     557                       # What read queue length does an incoming req see
system.mem_ctrls.rdQLenPdf::9                     384                       # What read queue length does an incoming req see
system.mem_ctrls.rdQLenPdf::10                    266                       # What read queue length does an incoming req see
system.mem_ctrls.rdQLenPdf::11                    151                       # What read queue length does an incoming req see
system.mem_ctrls.rdQLenPdf::12                    107                       # What read queue length does an incoming req see
system.mem_ctrls.rdQLenPdf::13                     42                       # What read queue length does an incoming req see
system.mem_ctrls.rdQLenPdf::14                     17                       # What read queue length does an incoming req see
system.mem_ctrls.rdQLenPdf::15                      7                       # What read queue length does an incoming req see
system.mem_ctrls.rdQLenPdf::16                      2                       # What read queue length does an incoming req see
system.mem_ctrls.rdQLenPdf::17                      3                       # What read queue length does an incoming req see
system.mem_ctrls.rdQLenPdf::18                      0                       # What read queue length does an incoming req see
system.mem_ctrls.rdQLenPdf::19                      0                       # What read queue length does an incoming req see
system.mem_ctrls.rdQLenPdf::20                      0                       # What read queue length does an incoming req see
system.mem_ctrls.rdQLenPdf::21                      0                       # What read queue length does an incoming req see
system.mem_ctrls.rdQLenPdf::22                      0                       # What read queue length does an incoming req see
system.mem_ctrls.rdQLenPdf::23                      0                       # What read queue length does an incoming req see
system.mem_ctrls.rdQLenPdf::24                      0                       # What read queue length does an incoming req see
system.mem_ctrls.rdQLenPdf::25                      0                       # What read queue length does an incoming req see
system.mem_ctrls.rdQLenPdf::26                      0                       # What read queue length does an incoming req see
system.mem_ctrls.rdQLenPdf::27                      0                       # What read queue length does an incoming req see
system.mem_ctrls.rdQLenPdf::28                      0                       # What read queue length does an incoming req see
system.mem_ctrls.rdQLenPdf::29                      0                       # What read queue length does an incoming req see
system.mem_ctrls.rdQLenPdf::30                      0                       # What read queue length does an incoming req see
system.mem_ctrls.rdQLenPdf::31                      0                       # What read queue length does an incoming req see
system.mem_ctrls.wrQLenPdf::0                       0                       # What write queue length does an incoming req see
system.mem_ctrls.wrQLenPdf::1                       0                       # What write queue length does an incoming req see
system.mem_ctrls.wrQLenPdf::2                       0                       # What write queue length does an incoming req see
system.mem_ctrls.wrQLenPdf::3                       0                       # What write queue length does an incoming req see
system.mem_ctrls.wrQLenPdf::4                       0                       # What write queue length does an incoming req see
system.mem_ctrls.wrQLenPdf::5                       0                       # What write queue length does an incoming req see
system.mem_ctrls.wrQLenPdf::6                       0                       # What write queue length does an incoming req see
system.mem_ctrls.wrQLenPdf::7                       0                       # What write queue length does an incoming req see
system.mem_ctrls.wrQLenPdf::8                       0                       # What write queue length does an incoming req see
system.mem_ctrls.wrQLenPdf::9                       0                       # What write queue length does an incoming req see
system.mem_ctrls.wrQLenPdf::10                      0                       # What write queue length does an incoming req see
system.mem_ctrls.wrQLenPdf::11                      0                       # What write queue length does an incoming req see
system.mem_ctrls.wrQLenPdf::12                      0                       # What write queue length does an incoming req see
system.mem_ctrls.wrQLenPdf::13                      0                       # What write queue length does an incoming req see
system.mem_ctrls.wrQLenPdf::14                      0                       # What write queue length does an incoming req see
system.mem_ctrls.wrQLenPdf::15                      0                       # What write queue length does an incoming req see
system.mem_ctrls.wrQLenPdf::16                      0                       # What write queue length does an incoming req see
system.mem_ctrls.wrQLenPdf::17                      0                       # What write queue length does an incoming req see
system.mem_ctrls.wrQLenPdf::18                      0                       # What write queue length does an incoming req see
system.mem_ctrls.wrQLenPdf::19                      0                       # What write queue length does an incoming req see
system.mem_ctrls.wrQLenPdf::20                      0                       # What write queue length does an incoming req see
system.mem_ctrls.wrQLenPdf::21                      0                       # What write queue length does an incoming req see
system.mem_ctrls.wrQLenPdf::22                      0                       # What write queue length does an incoming req see
system.mem_ctrls.wrQLenPdf::23                      0                       # What write queue length does an incoming req see
system.mem_ctrls.wrQLenPdf::24                      0                       # What write queue length does an incoming req see
system.mem_ctrls.wrQLenPdf::25                      0                       # What write queue length does an incoming req see
system.mem_ctrls.wrQLenPdf::26                      0                       # What write queue length does an incoming req see
system.mem_ctrls.wrQLenPdf::27                      0                       # What write queue length does an incoming req see
system.mem_ctrls.wrQLenPdf::28                      0                       # What write queue length does an incoming req see
system.mem_ctrls.wrQLenPdf::29                      0                       # What write queue length does an incoming req see
system.mem_ctrls.wrQLenPdf::30                      0                       # What write queue length does an incoming req see
system.mem_ctrls.wrQLenPdf::31                      0                       # What write queue length does an incoming req see
system.mem_ctrls.wrQLenPdf::32                      0                       # What write queue length does an incoming req see
system.mem_ctrls.wrQLenPdf::33                      0                       # What write queue length does an incoming req see
system.mem_ctrls.wrQLenPdf::34                      0                       # What write queue length does an incoming req see
system.mem_ctrls.wrQLenPdf::35                      0                       # What write queue length does an incoming req see
system.mem_ctrls.wrQLenPdf::36                      0                       # What write queue length does an incoming req see
system.mem_ctrls.wrQLenPdf::37                      0                       # What write queue length does an incoming req see
system.mem_ctrls.wrQLenPdf::38                      0                       # What write queue length does an incoming req see
system.mem_ctrls.wrQLenPdf::39                      0                       # What write queue length does an incoming req see
system.mem_ctrls.wrQLenPdf::40                      0                       # What write queue length does an incoming req see
system.mem_ctrls.wrQLenPdf::41                      0                       # What write queue length does an incoming req see
system.mem_ctrls.wrQLenPdf::42                      0                       # What write queue length does an incoming req see
system.mem_ctrls.wrQLenPdf::43                      0                       # What write queue length does an incoming req see
system.mem_ctrls.wrQLenPdf::44                      0                       # What write queue length does an incoming req see
system.mem_ctrls.wrQLenPdf::45                      0                       # What write queue length does an incoming req see
system.mem_ctrls.wrQLenPdf::46                      0                       # What write queue length does an incoming req see
system.mem_ctrls.wrQLenPdf::47                      0                       # What write queue length does an incoming req see
system.mem_ctrls.wrQLenPdf::48                      0                       # What write queue length does an incoming req see
system.mem_ctrls.wrQLenPdf::49                      0                       # What write queue length does an incoming req see
system.mem_ctrls.wrQLenPdf::50                      0                       # What write queue length does an incoming req see
system.mem_ctrls.wrQLenPdf::51                      0                       # What write queue length does an incoming req see
system.mem_ctrls.wrQLenPdf::52                      0                       # What write queue length does an incoming req see
system.mem_ctrls.wrQLenPdf::53                      0                       # What write queue length does an incoming req see
system.mem_ctrls.wrQLenPdf::54                      0                       # What write queue length does an incoming req see
system.mem_ctrls.wrQLenPdf::55                      0                       # What write queue length does an incoming req see
system.mem_ctrls.wrQLenPdf::56                      0                       # What write queue length does an incoming req see
system.mem_ctrls.wrQLenPdf::57                      0                       # What write queue length does an incoming req see
system.mem_ctrls.wrQLenPdf::58                      0                       # What write queue length does an incoming req see
system.mem_ctrls.wrQLenPdf::59                      0                       # What write queue length does an incoming req see
system.mem_ctrls.wrQLenPdf::60                      0                       # What write queue length does an incoming req see
system.mem_ctrls.wrQLenPdf::61                      0                       # What write queue length does an incoming req see
system.mem_ctrls.wrQLenPdf::62                      0                       # What write queue length does an incoming req see
system.mem_ctrls.wrQLenPdf::63                      0                       # What write queue length does an incoming req see
system.mem_ctrls.bytesPerActivate::samples         5058                       # Bytes accessed per row activation
system.mem_ctrls.bytesPerActivate::mean    179.625148                       # Bytes accessed per row activation
system.mem_ctrls.bytesPerActivate::gmean   110.517638                       # Bytes accessed per row activation
system.mem_ctrls.bytesPerActivate::stdev   245.341738                       # Bytes accessed per row activation
system.mem_ctrls.bytesPerActivate::0-127         3111     61.51%     61.51% # Bytes accessed per row activation
system.mem_ctrls.bytesPerActivate::128-255         1050     20.76%     82.27% # Bytes accessed per row activation
system.mem_ctrls.bytesPerActivate::256-383          276      5.46%     87.72% # Bytes accessed per row activation
system.mem_ctrls.bytesPerActivate::384-511          151      2.99%     90.71% # Bytes accessed per row activation
system.mem_ctrls.bytesPerActivate::512-639           75      1.48%     92.19% # Bytes accessed per row activation
system.mem_ctrls.bytesPerActivate::640-767           61      1.21%     93.40% # Bytes accessed per row activation
system.mem_ctrls.bytesPerActivate::768-895           30      0.59%     93.99% # Bytes accessed per row activation
system.mem_ctrls.bytesPerActivate::896-1023           27      0.53%     94.52% # Bytes accessed per row activation
system.mem_ctrls.bytesPerActivate::1024-1151          277      5.48%    100.00% # Bytes accessed per row activation
system.mem_ctrls.bytesPerActivate::total         5058                       # Bytes accessed per row activation
system.mem_ctrls.totQLat                    500175990                       # Total ticks spent queuing
system.mem_ctrls.totMemAccLat               766688490                       # Total ticks spent from burst creation until serviced by the DRAM
system.mem_ctrls.totBusLat                   71070000                       # Total ticks spent in databus transfers
system.mem_ctrls.avgQLat                     35188.97                       # Average queueing delay per DRAM burst
system.mem_ctrls.avgBusLat                    5000.00                       # Average bus latency per DRAM burst
system.mem_ctrls.avgMemAccLat                53938.97                       # Average memory access latency per DRAM burst
system.mem_ctrls.avgRdBW                        25.32                       # Average DRAM read bandwidth in MiByte/s
system.mem_ctrls.avgWrBW                         0.00                       # Average achieved write bandwidth in MiByte/s
system.mem_ctrls.avgRdBWSys                     25.32                       # Average system read bandwidth in MiByte/s
system.mem_ctrls.avgWrBWSys                      0.00                       # Average system write bandwidth in MiByte/s
system.mem_ctrls.peakBW                      12800.00                       # Theoretical peak bandwidth in MiByte/s
system.mem_ctrls.busUtil                         0.20                       # Data bus utilization in percentage
system.mem_ctrls.busUtilRead                     0.20                       # Data bus utilization in percentage for reads
system.mem_ctrls.busUtilWrite                    0.00                       # Data bus utilization in percentage for writes
system.mem_ctrls.avgRdQLen                       1.02                       # Average read queue length when enqueuing
system.mem_ctrls.avgWrQLen                       0.00                       # Average write queue length when enqueuing
system.mem_ctrls.readRowHits                     9146                       # Number of row buffer hits during reads
system.mem_ctrls.writeRowHits                       0                       # Number of row buffer hits during writes
system.mem_ctrls.readRowHitRate                 64.35                       # Row buffer hit rate for reads
system.mem_ctrls.writeRowHitRate                  nan                       # Row buffer hit rate for writes
system.mem_ctrls.avgGap                    2527858.70                       # Average gap between requests
system.mem_ctrls.pageHitRate                    64.35                       # Row buffer hit rate, read and write combined
system.mem_ctrls_0.actEnergy                 16036440                       # Energy for activate commands per rank (pJ)
system.mem_ctrls_0.preEnergy                  8508390                       # Energy for precharge commands per rank (pJ)
system.mem_ctrls_0.readEnergy                49030380                       # Energy for read commands per rank (pJ)
system.mem_ctrls_0.writeEnergy                      0                       # Energy for write commands per rank (pJ)
system.mem_ctrls_0.refreshEnergy         25814880.000000                       # Energy for refresh commands per rank (pJ)
system.mem_ctrls_0.actBackEnergy             76606290                       # Energy for active background per rank (pJ)
system.mem_ctrls_0.preBackEnergy               917760                       # Energy for precharge background per rank (pJ)
system.mem_ctrls_0.actPowerDownEnergy        45403920                       # Energy for active power-down per rank (pJ)
system.mem_ctrls_0.prePowerDownEnergy        11577120                       # Energy for precharge power-down per rank (pJ)
system.mem_ctrls_0.selfRefreshEnergy       8553636360                       # Energy for self refresh per rank (pJ)
system.mem_ctrls_0.totalEnergy             8787531540                       # Total energy per rank (pJ)
system.mem_ctrls_0.averagePower            244.566494                       # Core power per rank (mW)
system.mem_ctrls_0.totalIdleTime          35760654275                       # Total Idle time Per DRAM Rank
system.mem_ctrls_0.memoryStateTime::IDLE      1298250                       # Time in different power states
system.mem_ctrls_0.memoryStateTime::REF      10944000                       # Time in different power states
system.mem_ctrls_0.memoryStateTime::SREF  35630947500                       # Time in different power states
system.mem_ctrls_0.memoryStateTime::PRE_PDN     30149500                       # Time in different power states
system.mem_ctrls_0.memoryStateTime::ACT     158125475                       # Time in different power states
system.mem_ctrls_0.memoryStateTime::ACT_PDN     99587275                       # Time in different power states
system.mem_ctrls_1.actEnergy                 20149080                       # Energy for activate commands per rank (pJ)
system.mem_ctrls_1.preEnergy                 10686720                       # Energy for precharge commands per rank (pJ)
system.mem_ctrls_1.readEnergy                52457580                       # Energy for read commands per rank (pJ)
system.mem_ctrls_1.writeEnergy                      0                       # Energy for write commands per rank (pJ)
system.mem_ctrls_1.refreshEnergy         27044160.000000                       # Energy for refresh commands per rank (pJ)
system.mem_ctrls_1.actBackEnergy             79275030                       # Energy for active background per rank (pJ)
system.mem_ctrls_1.preBackEnergy               911040                       # Energy for precharge background per rank (pJ)
system.mem_ctrls_1.actPowerDownEnergy        50588070                       # Energy for active power-down per rank (pJ)
system.mem_ctrls_1.prePowerDownEnergy        11593440                       # Energy for precharge power-down per rank (pJ)
system.mem_ctrls_1.selfRefreshEnergy       8549497260                       # Energy for self refresh per rank (pJ)
system.mem_ctrls_1.totalEnergy             8802202380                       # Total energy per rank (pJ)
system.mem_ctrls_1.averagePower            244.974799                       # Core power per rank (mW)
system.mem_ctrls_1.totalIdleTime          35754756782                       # Total Idle time Per DRAM Rank
system.mem_ctrls_1.memoryStateTime::IDLE      1189501                       # Time in different power states
system.mem_ctrls_1.memoryStateTime::REF      11464000                       # Time in different power states
system.mem_ctrls_1.memoryStateTime::SREF  35613700000                       # Time in different power states
system.mem_ctrls_1.memoryStateTime::PRE_PDN     30189500                       # Time in different power states
system.mem_ctrls_1.memoryStateTime::ACT     163604217                       # Time in different power states
system.mem_ctrls_1.memoryStateTime::ACT_PDN    110904782                       # Time in different power states
system.pwrStateResidencyTicks::UNDEFINED  35931052000                       # Cumulative time (in ticks) in various power states
system.cpu0.branchPred.lookups                6868130                       # Number of BP lookups
system.cpu0.branchPred.condPredicted          6868130                       # Number of conditional branches predicted
system.cpu0.branchPred.condIncorrect             8400                       # Number of conditional branches incorrect
system.cpu0.branchPred.BTBLookups             6609007                       # Number of BTB lookups
system.cpu0.branchPred.BTBHits                      0                       # Number of BTB hits
system.cpu0.branchPred.BTBCorrect                   0                       # Number of correct BTB predictions (this stat may not work properly.
system.cpu0.branchPred.BTBHitPct             0.000000                       # BTB Hit Percentage
system.cpu0.branchPred.usedRAS                 237616                       # Number of times the RAS was used to get a target.
system.cpu0.branchPred.RASInCorrect               452                       # Number of incorrect RAS predictions.
system.cpu0.branchPred.indirectLookups        6609007                       # Number of indirect predictor lookups.
system.cpu0.branchPred.indirectHits           3531668                       # Number of indirect target hits.
system.cpu0.branchPred.indirectMisses         3077339                       # Number of indirect misses.
system.cpu0.branchPredindirectMispredicted         4479                       # Number of mispredicted indirect branches.
system.cpu_voltage_domain.voltage                   1                       # Voltage in Volts
system.cpu0.clk_domain.clock                      500                       # Clock period in ticks
system.cpu0.dtb.walker.pwrStateResidencyTicks::UNDEFINED  35931052000                       # Cumulative time (in ticks) in various power states
system.cpu0.apic_clk_domain.clock                8000                       # Clock period in ticks
system.cpu0.interrupts.pwrStateResidencyTicks::UNDEFINED  35931052000                       # Cumulative time (in ticks) in various power states
system.cpu0.itb.walker.pwrStateResidencyTicks::UNDEFINED  35931052000                       # Cumulative time (in ticks) in various power states
system.cpu0.workload.num_syscalls              235340                       # Number of system calls
system.cpu0.pwrStateResidencyTicks::ON    35931052000                       # Cumulative time (in ticks) in various power states
system.cpu0.numCycles                        36202210                       # number of cpu cycles simulated
system.cpu0.numWorkItemsStarted                     0                       # number of work items this cpu started
system.cpu0.numWorkItemsCompleted                   0                       # number of work items this cpu completed
system.cpu0.fetch.icacheStallCycles           1724234                       # Number of cycles fetch is stalled on an Icache miss
system.cpu0.fetch.Insts                      20039398                       # Number of instructions fetch has processed
system.cpu0.fetch.Branches                    6868130                       # Number of branches that fetch encountered
system.cpu0.fetch.predictedBranches           3769284                       # Number of branches that fetch has predicted taken
system.cpu0.fetch.Cycles                     34365066                       # Number of cycles fetch has run and was not squashing or blocked
system.cpu0.fetch.SquashCycles                  16945                       # Number of cycles fetch has spent squashing
system.cpu0.fetch.MiscStallCycles               10019                       # Number of cycles fetch has spent waiting on interrupts, or bad addresses, or out of MSHRs
system.cpu0.fetch.NoActiveThreadStallCycles           10                       # Number of stall cycles due to no active thread to fetch from
system.cpu0.fetch.PendingTrapStallCycles          747                       # Number of stall cycles due to pending traps
system.cpu0.fetch.PendingQuiesceStallCycles           13                       # Number of stall cycles due to pending quiesce instructions
system.cpu0.fetch.IcacheWaitRetryStallCycles         7707                       # Number of stall cycles due to full MSHR
system.cpu0.fetch.CacheLines                  1695047                       # Number of cache lines fetched
system.cpu0.fetch.IcacheSquashes                 2425                       # Number of outstanding Icache misses that were squashed
system.cpu0.fetch.rateDist::samples          36116268                       # Number of instructions fetched each cycle (Total)
system.cpu0.fetch.rateDist::mean             1.108206                       # Number of instructions fetched each cycle (Total)
system.cpu0.fetch.rateDist::stdev            2.474260                       # Number of instructions fetched each cycle (Total)
system.cpu0.fetch.rateDist::underflows              0      0.00%      0.00% # Number of instructions fetched each cycle (Total)
system.cpu0.fetch.rateDist::0                29220215     80.91%     80.91% # Number of instructions fetched each cycle (Total)
system.cpu0.fetch.rateDist::1                  243651      0.67%     81.58% # Number of instructions fetched each cycle (Total)
system.cpu0.fetch.rateDist::2                  121253      0.34%     81.92% # Number of instructions fetched each cycle (Total)
system.cpu0.fetch.rateDist::3                  360996      1.00%     82.92% # Number of instructions fetched each cycle (Total)
system.cpu0.fetch.rateDist::4                 2451465      6.79%     89.70% # Number of instructions fetched each cycle (Total)
system.cpu0.fetch.rateDist::5                    7569      0.02%     89.72% # Number of instructions fetched each cycle (Total)
system.cpu0.fetch.rateDist::6                  359349      0.99%     90.72% # Number of instructions fetched each cycle (Total)
system.cpu0.fetch.rateDist::7                  358834      0.99%     91.71% # Number of instructions fetched each cycle (Total)
system.cpu0.fetch.rateDist::8                 2992936      8.29%    100.00% # Number of instructions fetched each cycle (Total)
system.cpu0.fetch.rateDist::overflows               0      0.00%    100.00% # Number of instructions fetched each cycle (Total)
system.cpu0.fetch.rateDist::min_value               0                       # Number of instructions fetched each cycle (Total)
system.cpu0.fetch.rateDist::max_value               8                       # Number of instructions fetched each cycle (Total)
system.cpu0.fetch.rateDist::total            36116268                       # Number of instructions fetched each cycle (Total)
system.cpu0.fetch.branchRate                 0.189716                       # Number of branch fetches per cycle
system.cpu0.fetch.rate                       0.553541                       # Number of inst fetches per cycle
system.cpu0.decode.IdleCycles                 1537485                       # Number of cycles decode is idle
system.cpu0.decode.BlockedCycles             29272406                       # Number of cycles decode is blocked
system.cpu0.decode.RunCycles                  1263614                       # Number of cycles decode is running
system.cpu0.decode.UnblockCycles              4034281                       # Number of cycles decode is unblocking
system.cpu0.decode.SquashCycles                  8472                       # Number of cycles decode is squashing
system.cpu0.decode.DecodedInsts              39943982                       # Number of instructions handled by decode
system.cpu0.rename.SquashCycles                  8472                       # Number of cycles rename is squashing
system.cpu0.rename.IdleCycles                 2201708                       # Number of cycles rename is idle
system.cpu0.rename.BlockCycles                7753057                       # Number of cycles rename is blocking
system.cpu0.rename.serializeStallCycles      15928471                       # count of cycles rename stalled for serializing inst
system.cpu0.rename.RunCycles                  2642270                       # Number of cycles rename is running
system.cpu0.rename.UnblockCycles              7582280                       # Number of cycles rename is unblocking
system.cpu0.rename.RenamedInsts              39903348                       # Number of instructions processed by rename
system.cpu0.rename.ROBFullEvents              4662923                       # Number of times rename has blocked due to ROB full
system.cpu0.rename.IQFullEvents                 13080                       # Number of times rename has blocked due to IQ full
system.cpu0.rename.LQFullEvents               1826467                       # Number of times rename has blocked due to LQ full
system.cpu0.rename.SQFullEvents                 42381                       # Number of times rename has blocked due to SQ full
system.cpu0.rename.RenamedOperands           44724307                       # Number of destination operands rename has renamed
system.cpu0.rename.RenameLookups             87099477                       # Number of register rename lookups that rename has made
system.cpu0.rename.int_rename_lookups        42456205                       # Number of integer rename lookups
system.cpu0.rename.fp_rename_lookups            17620                       # Number of floating rename lookups
system.cpu0.rename.CommittedMaps             44227127                       # Number of HB maps that are committed
system.cpu0.rename.UndoneMaps                  497180                       # Number of HB maps that are undone due to squashing
system.cpu0.rename.serializingInsts            235375                       # count of serializing insts renamed
system.cpu0.rename.tempSerializingInsts        235378                       # count of temporary serializing insts renamed
system.cpu0.rename.skidInsts                 25282806                       # count of insts added to the skid buffer
system.cpu0.memDep0.insertedLoads             6150136                       # Number of loads inserted to the mem dependence unit.
system.cpu0.memDep0.insertedStores             256386                       # Number of stores inserted to the mem dependence unit.
system.cpu0.memDep0.conflictingLoads             1156                       # Number of conflicting loads.
system.cpu0.memDep0.conflictingStores             300                       # Number of conflicting stores.
system.cpu0.iq.iqInstsAdded                  39594461                       # Number of instructions added to the IQ (excludes non-spec)
system.cpu0.iq.iqNonSpecInstsAdded             235416                       # Number of non-speculative instructions added to the IQ
system.cpu0.iq.iqInstsIssued                 39830924                       # Number of instructions issued
system.cpu0.iq.iqSquashedInstsIssued             6708                       # Number of squashed instructions issued
system.cpu0.iq.iqSquashedInstsExamined         329062                       # Number of squashed instructions iterated over during squash; mainly for profiling
system.cpu0.iq.iqSquashedOperandsExamined       496303                       # Number of squashed operands that are examined and possibly removed from graph
system.cpu0.iq.iqSquashedNonSpecRemoved            76                       # Number of squashed non-spec instructions that were removed
system.cpu0.iq.issued_per_cycle::samples     36116268                       # Number of insts issued each cycle
system.cpu0.iq.issued_per_cycle::mean        1.102853                       # Number of insts issued each cycle
system.cpu0.iq.issued_per_cycle::stdev       1.559145                       # Number of insts issued each cycle
system.cpu0.iq.issued_per_cycle::underflows            0      0.00%      0.00% # Number of insts issued each cycle
system.cpu0.iq.issued_per_cycle::0           19366690     53.62%     53.62% # Number of insts issued each cycle
system.cpu0.iq.issued_per_cycle::1            6137458     16.99%     70.62% # Number of insts issued each cycle
system.cpu0.iq.issued_per_cycle::2            3820082     10.58%     81.19% # Number of insts issued each cycle
system.cpu0.iq.issued_per_cycle::3            3701014     10.25%     91.44% # Number of insts issued each cycle
system.cpu0.iq.issued_per_cycle::4            1767284      4.89%     96.33% # Number of insts issued each cycle
system.cpu0.iq.issued_per_cycle::5             684436      1.90%     98.23% # Number of insts issued each cycle
system.cpu0.iq.issued_per_cycle::6             263179      0.73%     98.96% # Number of insts issued each cycle
system.cpu0.iq.issued_per_cycle::7             129130      0.36%     99.32% # Number of insts issued each cycle
system.cpu0.iq.issued_per_cycle::8             246995      0.68%    100.00% # Number of insts issued each cycle
system.cpu0.iq.issued_per_cycle::overflows            0      0.00%    100.00% # Number of insts issued each cycle
system.cpu0.iq.issued_per_cycle::min_value            0                       # Number of insts issued each cycle
system.cpu0.iq.issued_per_cycle::max_value            8                       # Number of insts issued each cycle
system.cpu0.iq.issued_per_cycle::total       36116268                       # Number of insts issued each cycle
system.cpu0.iq.fu_full::No_OpClass                  0      0.00%      0.00% # attempts to use FU when none available
system.cpu0.iq.fu_full::IntAlu                   5749     25.58%     25.58% # attempts to use FU when none available
system.cpu0.iq.fu_full::IntMult                     0      0.00%     25.58% # attempts to use FU when none available
system.cpu0.iq.fu_full::IntDiv                      0      0.00%     25.58% # attempts to use FU when none available
system.cpu0.iq.fu_full::FloatAdd                   50      0.22%     25.80% # attempts to use FU when none available
system.cpu0.iq.fu_full::FloatCmp                    0      0.00%     25.80% # attempts to use FU when none available
system.cpu0.iq.fu_full::FloatCvt                    0      0.00%     25.80% # attempts to use FU when none available
system.cpu0.iq.fu_full::FloatMult                   0      0.00%     25.80% # attempts to use FU when none available
system.cpu0.iq.fu_full::FloatMultAcc                0      0.00%     25.80% # attempts to use FU when none available
system.cpu0.iq.fu_full::FloatDiv                    0      0.00%     25.80% # attempts to use FU when none available
system.cpu0.iq.fu_full::FloatMisc                   0      0.00%     25.80% # attempts to use FU when none available
system.cpu0.iq.fu_full::FloatSqrt                   0      0.00%     25.80% # attempts to use FU when none available
system.cpu0.iq.fu_full::SimdAdd                     0      0.00%     25.80% # attempts to use FU when none available
system.cpu0.iq.fu_full::SimdAddAcc                  0      0.00%     25.80% # attempts to use FU when none available
system.cpu0.iq.fu_full::SimdAlu                     0      0.00%     25.80% # attempts to use FU when none available
system.cpu0.iq.fu_full::SimdCmp                     0      0.00%     25.80% # attempts to use FU when none available
system.cpu0.iq.fu_full::SimdCvt                     0      0.00%     25.80% # attempts to use FU when none available
system.cpu0.iq.fu_full::SimdMisc                    0      0.00%     25.80% # attempts to use FU when none available
system.cpu0.iq.fu_full::SimdMult                    0      0.00%     25.80% # attempts to use FU when none available
system.cpu0.iq.fu_full::SimdMultAcc                 0      0.00%     25.80% # attempts to use FU when none available
system.cpu0.iq.fu_full::SimdShift                   0      0.00%     25.80% # attempts to use FU when none available
system.cpu0.iq.fu_full::SimdShiftAcc                0      0.00%     25.80% # attempts to use FU when none available
system.cpu0.iq.fu_full::SimdSqrt                    0      0.00%     25.80% # attempts to use FU when none available
system.cpu0.iq.fu_full::SimdFloatAdd                0      0.00%     25.80% # attempts to use FU when none available
system.cpu0.iq.fu_full::SimdFloatAlu                0      0.00%     25.80% # attempts to use FU when none available
system.cpu0.iq.fu_full::SimdFloatCmp                0      0.00%     25.80% # attempts to use FU when none available
system.cpu0.iq.fu_full::SimdFloatCvt                0      0.00%     25.80% # attempts to use FU when none available
system.cpu0.iq.fu_full::SimdFloatDiv                0      0.00%     25.80% # attempts to use FU when none available
system.cpu0.iq.fu_full::SimdFloatMisc               0      0.00%     25.80% # attempts to use FU when none available
system.cpu0.iq.fu_full::SimdFloatMult               0      0.00%     25.80% # attempts to use FU when none available
system.cpu0.iq.fu_full::SimdFloatMultAcc            0      0.00%     25.80% # attempts to use FU when none available
system.cpu0.iq.fu_full::SimdFloatSqrt               0      0.00%     25.80% # attempts to use FU when none available
system.cpu0.iq.fu_full::MemRead                 15831     70.43%     96.23% # attempts to use FU when none available
system.cpu0.iq.fu_full::MemWrite                  702      3.12%     99.35% # attempts to use FU when none available
system.cpu0.iq.fu_full::FloatMemRead               94      0.42%     99.77% # attempts to use FU when none available
system.cpu0.iq.fu_full::FloatMemWrite              51      0.23%    100.00% # attempts to use FU when none available
system.cpu0.iq.fu_full::IprAccess                   0      0.00%    100.00% # attempts to use FU when none available
system.cpu0.iq.fu_full::InstPrefetch                0      0.00%    100.00% # attempts to use FU when none available
system.cpu0.iq.FU_type_0::No_OpClass             4176      0.01%      0.01% # Type of FU issued
system.cpu0.iq.FU_type_0::IntAlu             33201352     83.36%     83.37% # Type of FU issued
system.cpu0.iq.FU_type_0::IntMult              117724      0.30%     83.66% # Type of FU issued
system.cpu0.iq.FU_type_0::IntDiv                 1211      0.00%     83.66% # Type of FU issued
system.cpu0.iq.FU_type_0::FloatAdd               4248      0.01%     83.68% # Type of FU issued
system.cpu0.iq.FU_type_0::FloatCmp                  0      0.00%     83.68% # Type of FU issued
system.cpu0.iq.FU_type_0::FloatCvt                  0      0.00%     83.68% # Type of FU issued
system.cpu0.iq.FU_type_0::FloatMult                 0      0.00%     83.68% # Type of FU issued
system.cpu0.iq.FU_type_0::FloatMultAcc              0      0.00%     83.68% # Type of FU issued
system.cpu0.iq.FU_type_0::FloatDiv                  0      0.00%     83.68% # Type of FU issued
system.cpu0.iq.FU_type_0::FloatMisc                 0      0.00%     83.68% # Type of FU issued
system.cpu0.iq.FU_type_0::FloatSqrt                 0      0.00%     83.68% # Type of FU issued
system.cpu0.iq.FU_type_0::SimdAdd                   0      0.00%     83.68% # Type of FU issued
system.cpu0.iq.FU_type_0::SimdAddAcc                0      0.00%     83.68% # Type of FU issued
system.cpu0.iq.FU_type_0::SimdAlu                   0      0.00%     83.68% # Type of FU issued
system.cpu0.iq.FU_type_0::SimdCmp                   0      0.00%     83.68% # Type of FU issued
system.cpu0.iq.FU_type_0::SimdCvt                   0      0.00%     83.68% # Type of FU issued
system.cpu0.iq.FU_type_0::SimdMisc                  0      0.00%     83.68% # Type of FU issued
system.cpu0.iq.FU_type_0::SimdMult                  0      0.00%     83.68% # Type of FU issued
system.cpu0.iq.FU_type_0::SimdMultAcc               0      0.00%     83.68% # Type of FU issued
system.cpu0.iq.FU_type_0::SimdShift                 0      0.00%     83.68% # Type of FU issued
system.cpu0.iq.FU_type_0::SimdShiftAcc              0      0.00%     83.68% # Type of FU issued
system.cpu0.iq.FU_type_0::SimdSqrt                  0      0.00%     83.68% # Type of FU issued
system.cpu0.iq.FU_type_0::SimdFloatAdd              0      0.00%     83.68% # Type of FU issued
system.cpu0.iq.FU_type_0::SimdFloatAlu              0      0.00%     83.68% # Type of FU issued
system.cpu0.iq.FU_type_0::SimdFloatCmp              0      0.00%     83.68% # Type of FU issued
system.cpu0.iq.FU_type_0::SimdFloatCvt              0      0.00%     83.68% # Type of FU issued
system.cpu0.iq.FU_type_0::SimdFloatDiv              0      0.00%     83.68% # Type of FU issued
system.cpu0.iq.FU_type_0::SimdFloatMisc             0      0.00%     83.68% # Type of FU issued
system.cpu0.iq.FU_type_0::SimdFloatMult             0      0.00%     83.68% # Type of FU issued
system.cpu0.iq.FU_type_0::SimdFloatMultAcc            0      0.00%     83.68% # Type of FU issued
system.cpu0.iq.FU_type_0::SimdFloatSqrt             0      0.00%     83.68% # Type of FU issued
system.cpu0.iq.FU_type_0::MemRead             6245100     15.68%     99.35% # Type of FU issued
system.cpu0.iq.FU_type_0::MemWrite             251473      0.63%     99.99% # Type of FU issued
system.cpu0.iq.FU_type_0::FloatMemRead           5196      0.01%    100.00% # Type of FU issued
system.cpu0.iq.FU_type_0::FloatMemWrite           444      0.00%    100.00% # Type of FU issued
system.cpu0.iq.FU_type_0::IprAccess                 0      0.00%    100.00% # Type of FU issued
system.cpu0.iq.FU_type_0::InstPrefetch              0      0.00%    100.00% # Type of FU issued
system.cpu0.iq.FU_type_0::total              39830924                       # Type of FU issued
system.cpu0.iq.rate                          1.100235                       # Inst issue rate
system.cpu0.iq.fu_busy_cnt                      22477                       # FU busy when requested
system.cpu0.iq.fu_busy_rate                  0.000564                       # FU busy rate (busy events/executed inst)
system.cpu0.iq.int_inst_queue_reads         115786803                       # Number of integer instruction queue reads
system.cpu0.iq.int_inst_queue_writes         40143323                       # Number of integer instruction queue writes
system.cpu0.iq.int_inst_queue_wakeup_accesses     39682203                       # Number of integer instruction queue wakeup accesses
system.cpu0.iq.fp_inst_queue_reads              20498                       # Number of floating instruction queue reads
system.cpu0.iq.fp_inst_queue_writes             15674                       # Number of floating instruction queue writes
system.cpu0.iq.fp_inst_queue_wakeup_accesses         6149                       # Number of floating instruction queue wakeup accesses
system.cpu0.iq.int_alu_accesses              39839012                       # Number of integer alu accesses
system.cpu0.iq.fp_alu_accesses                  10213                       # Number of floating point alu accesses
system.cpu0.iew.lsq.thread0.forwLoads            2752                       # Number of loads that had data forwarded from stores
system.cpu0.iew.lsq.thread0.invAddrLoads            0                       # Number of loads ignored due to an invalid address
system.cpu0.iew.lsq.thread0.squashedLoads        45273                       # Number of loads squashed
system.cpu0.iew.lsq.thread0.ignoredResponses           18                       # Number of memory responses ignored because the instruction is squashed
system.cpu0.iew.lsq.thread0.memOrderViolation           66                       # Number of memory ordering violations
system.cpu0.iew.lsq.thread0.squashedStores         9860                       # Number of stores squashed
system.cpu0.iew.lsq.thread0.invAddrSwpfs            0                       # Number of software prefetches ignored due to an invalid address
system.cpu0.iew.lsq.thread0.blockedLoads            0                       # Number of blocked loads due to partial load-store forwarding
system.cpu0.iew.lsq.thread0.rescheduledLoads            4                       # Number of loads that were rescheduled
system.cpu0.iew.lsq.thread0.cacheBlocked       112766                       # Number of times an access to memory failed due to the cache being blocked
system.cpu0.iew.iewIdleCycles                       0                       # Number of cycles IEW is idle
system.cpu0.iew.iewSquashCycles                  8472                       # Number of cycles IEW is squashing
system.cpu0.iew.iewBlockCycles                 122880                       # Number of cycles IEW is blocking
system.cpu0.iew.iewUnblockCycles                 5709                       # Number of cycles IEW is unblocking
system.cpu0.iew.iewDispatchedInsts           39829877                       # Number of instructions dispatched to IQ
system.cpu0.iew.iewDispSquashedInsts             2068                       # Number of squashed instructions skipped by dispatch
system.cpu0.iew.iewDispLoadInsts              6150136                       # Number of dispatched load instructions
system.cpu0.iew.iewDispStoreInsts              256386                       # Number of dispatched store instructions
system.cpu0.iew.iewDispNonSpecInsts            235383                       # Number of dispatched non-speculative instructions
system.cpu0.iew.iewIQFullEvents                   567                       # Number of times the IQ has become full, causing a stall
system.cpu0.iew.iewLSQFullEvents                 4745                       # Number of times the LSQ has become full, causing a stall
system.cpu0.iew.memOrderViolationEvents            66                       # Number of memory order violations
system.cpu0.iew.predictedTakenIncorrect          1859                       # Number of branches that were predicted taken incorrectly
system.cpu0.iew.predictedNotTakenIncorrect         8832                       # Number of branches that were predicted not taken incorrectly
system.cpu0.iew.branchMispredicts               10691                       # Number of branch mispredicts detected at execute
system.cpu0.iew.iewExecutedInsts             39810500                       # Number of executed instructions
system.cpu0.iew.iewExecLoadInsts              6244141                       # Number of load instructions executed
system.cpu0.iew.iewExecSquashedInsts            20424                       # Number of squashed instructions skipped in execute
system.cpu0.iew.exec_swp                            0                       # number of swp insts executed
system.cpu0.iew.exec_nop                            0                       # number of nop insts executed
system.cpu0.iew.exec_refs                     6495095                       # number of memory reference insts executed
system.cpu0.iew.exec_branches                 6817947                       # Number of branches executed
system.cpu0.iew.exec_stores                    250954                       # Number of stores executed
system.cpu0.iew.exec_rate                    1.099670                       # Inst execution rate
system.cpu0.iew.wb_sent                      39693227                       # cumulative count of insts sent to commit
system.cpu0.iew.wb_count                     39688352                       # cumulative count of insts written-back
system.cpu0.iew.wb_producers                 28314965                       # num instructions producing a value
system.cpu0.iew.wb_consumers                 39578306                       # num instructions consuming a value
system.cpu0.iew.wb_rate                      1.096296                       # insts written-back per cycle
system.cpu0.iew.wb_fanout                    0.715416                       # average fanout of values written-back
system.cpu0.commit.commitSquashedInsts         329133                       # The number of squashed insts skipped by commit
system.cpu0.commit.commitNonSpecStalls         235340                       # The number of times commit has been forced to stall to communicate backwards
system.cpu0.commit.branchMispredicts             8420                       # The number of times a branch was mispredicted
system.cpu0.commit.committed_per_cycle::samples     36066841                       # Number of insts commited each cycle
system.cpu0.commit.committed_per_cycle::mean     1.095211                       # Number of insts commited each cycle
system.cpu0.commit.committed_per_cycle::stdev     2.320590                       # Number of insts commited each cycle
system.cpu0.commit.committed_per_cycle::underflows            0      0.00%      0.00% # Number of insts commited each cycle
system.cpu0.commit.committed_per_cycle::0     25596239     70.97%     70.97% # Number of insts commited each cycle
system.cpu0.commit.committed_per_cycle::1      3760466     10.43%     81.40% # Number of insts commited each cycle
system.cpu0.commit.committed_per_cycle::2       480051      1.33%     82.73% # Number of insts commited each cycle
system.cpu0.commit.committed_per_cycle::3      2930830      8.13%     90.85% # Number of insts commited each cycle
system.cpu0.commit.committed_per_cycle::4         8525      0.02%     90.88% # Number of insts commited each cycle
system.cpu0.commit.committed_per_cycle::5         4959      0.01%     90.89% # Number of insts commited each cycle
system.cpu0.commit.committed_per_cycle::6       119158      0.33%     91.22% # Number of insts commited each cycle
system.cpu0.commit.committed_per_cycle::7       118990      0.33%     91.55% # Number of insts commited each cycle
system.cpu0.commit.committed_per_cycle::8      3047623      8.45%    100.00% # Number of insts commited each cycle
system.cpu0.commit.committed_per_cycle::overflows            0      0.00%    100.00% # Number of insts commited each cycle
system.cpu0.commit.committed_per_cycle::min_value            0                       # Number of insts commited each cycle
system.cpu0.commit.committed_per_cycle::max_value            8                       # Number of insts commited each cycle
system.cpu0.commit.committed_per_cycle::total     36066841                       # Number of insts commited each cycle
system.cpu0.commit.committedInsts            19761010                       # Number of instructions committed
system.cpu0.commit.committedOps              39500815                       # Number of ops (including micro ops) committed
system.cpu0.commit.swp_count                        0                       # Number of s/w prefetches committed
system.cpu0.commit.refs                       6351389                       # Number of memory references committed
system.cpu0.commit.loads                      6104863                       # Number of loads committed
system.cpu0.commit.membars                          0                       # Number of memory barriers committed
system.cpu0.commit.branches                   6804821                       # Number of branches committed
system.cpu0.commit.fp_insts                      3624                       # Number of committed floating point instructions.
system.cpu0.commit.int_insts                 39497366                       # Number of committed integer instructions.
system.cpu0.commit.function_calls              236006                       # Number of function calls committed.
system.cpu0.commit.op_class_0::No_OpClass         1326      0.00%      0.00% # Class of committed instruction
system.cpu0.commit.op_class_0::IntAlu        33026871     83.61%     83.61% # Class of committed instruction
system.cpu0.commit.op_class_0::IntMult         117707      0.30%     83.91% # Class of committed instruction
system.cpu0.commit.op_class_0::IntDiv            1171      0.00%     83.91% # Class of committed instruction
system.cpu0.commit.op_class_0::FloatAdd          2351      0.01%     83.92% # Class of committed instruction
system.cpu0.commit.op_class_0::FloatCmp             0      0.00%     83.92% # Class of committed instruction
system.cpu0.commit.op_class_0::FloatCvt             0      0.00%     83.92% # Class of committed instruction
system.cpu0.commit.op_class_0::FloatMult            0      0.00%     83.92% # Class of committed instruction
system.cpu0.commit.op_class_0::FloatMultAcc            0      0.00%     83.92% # Class of committed instruction
system.cpu0.commit.op_class_0::FloatDiv             0      0.00%     83.92% # Class of committed instruction
system.cpu0.commit.op_class_0::FloatMisc            0      0.00%     83.92% # Class of committed instruction
system.cpu0.commit.op_class_0::FloatSqrt            0      0.00%     83.92% # Class of committed instruction
system.cpu0.commit.op_class_0::SimdAdd              0      0.00%     83.92% # Class of committed instruction
system.cpu0.commit.op_class_0::SimdAddAcc            0      0.00%     83.92% # Class of committed instruction
system.cpu0.commit.op_class_0::SimdAlu              0      0.00%     83.92% # Class of committed instruction
system.cpu0.commit.op_class_0::SimdCmp              0      0.00%     83.92% # Class of committed instruction
system.cpu0.commit.op_class_0::SimdCvt              0      0.00%     83.92% # Class of committed instruction
system.cpu0.commit.op_class_0::SimdMisc             0      0.00%     83.92% # Class of committed instruction
system.cpu0.commit.op_class_0::SimdMult             0      0.00%     83.92% # Class of committed instruction
system.cpu0.commit.op_class_0::SimdMultAcc            0      0.00%     83.92% # Class of committed instruction
system.cpu0.commit.op_class_0::SimdShift            0      0.00%     83.92% # Class of committed instruction
system.cpu0.commit.op_class_0::SimdShiftAcc            0      0.00%     83.92% # Class of committed instruction
system.cpu0.commit.op_class_0::SimdSqrt             0      0.00%     83.92% # Class of committed instruction
system.cpu0.commit.op_class_0::SimdFloatAdd            0      0.00%     83.92% # Class of committed instruction
system.cpu0.commit.op_class_0::SimdFloatAlu            0      0.00%     83.92% # Class of committed instruction
system.cpu0.commit.op_class_0::SimdFloatCmp            0      0.00%     83.92% # Class of committed instruction
system.cpu0.commit.op_class_0::SimdFloatCvt            0      0.00%     83.92% # Class of committed instruction
system.cpu0.commit.op_class_0::SimdFloatDiv            0      0.00%     83.92% # Class of committed instruction
system.cpu0.commit.op_class_0::SimdFloatMisc            0      0.00%     83.92% # Class of committed instruction
system.cpu0.commit.op_class_0::SimdFloatMult            0      0.00%     83.92% # Class of committed instruction
system.cpu0.commit.op_class_0::SimdFloatMultAcc            0      0.00%     83.92% # Class of committed instruction
system.cpu0.commit.op_class_0::SimdFloatSqrt            0      0.00%     83.92% # Class of committed instruction
system.cpu0.commit.op_class_0::MemRead        6104037     15.45%     99.37% # Class of committed instruction
system.cpu0.commit.op_class_0::MemWrite        246142      0.62%    100.00% # Class of committed instruction
system.cpu0.commit.op_class_0::FloatMemRead          826      0.00%    100.00% # Class of committed instruction
system.cpu0.commit.op_class_0::FloatMemWrite          384      0.00%    100.00% # Class of committed instruction
system.cpu0.commit.op_class_0::IprAccess            0      0.00%    100.00% # Class of committed instruction
system.cpu0.commit.op_class_0::InstPrefetch            0      0.00%    100.00% # Class of committed instruction
system.cpu0.commit.op_class_0::total         39500815                       # Class of committed instruction
system.cpu0.commit.bw_lim_events              3047623                       # number cycles where commit BW limit reached
system.cpu0.rob.rob_reads                    72849140                       # The number of ROB reads
system.cpu0.rob.rob_writes                   79709921                       # The number of ROB writes
system.cpu0.timesIdled                            790                       # Number of times that the entire CPU went into an idle state and unscheduled itself
system.cpu0.idleCycles                          85942                       # Total number of cycles that the CPU has spent unscheduled due to idling
system.cpu0.committedInsts                   19761010                       # Number of Instructions Simulated
system.cpu0.committedOps                     39500815                       # Number of Ops (including micro ops) Simulated
system.cpu0.cpi                              1.832002                       # CPI: Cycles Per Instruction
system.cpu0.cpi_total                        1.832002                       # CPI: Total CPI of All Threads
system.cpu0.ipc                              0.545851                       # IPC: Instructions Per Cycle
system.cpu0.ipc_total                        0.545851                       # IPC: Total IPC of All Threads
system.cpu0.int_regfile_reads                42313608                       # number of integer regfile reads
system.cpu0.int_regfile_writes               32968520                       # number of integer regfile writes
system.cpu0.fp_regfile_reads                     9195                       # number of floating regfile reads
system.cpu0.fp_regfile_writes                    5324                       # number of floating regfile writes
system.cpu0.cc_regfile_reads                 21969220                       # number of cc regfile reads
system.cpu0.cc_regfile_writes                11943818                       # number of cc regfile writes
system.cpu0.misc_regfile_reads               22481722                       # number of misc regfile reads
system.cpu1.branchPred.lookups                8732072                       # Number of BP lookups
system.cpu1.branchPred.condPredicted          8732072                       # Number of conditional branches predicted
system.cpu1.branchPred.condIncorrect             8703                       # Number of conditional branches incorrect
system.cpu1.branchPred.BTBLookups             8239122                       # Number of BTB lookups
system.cpu1.branchPred.BTBHits                      0                       # Number of BTB hits
system.cpu1.branchPred.BTBCorrect                   0                       # Number of correct BTB predictions (this stat may not work properly.
system.cpu1.branchPred.BTBHitPct             0.000000                       # BTB Hit Percentage
system.cpu1.branchPred.usedRAS                 471767                       # Number of times the RAS was used to get a target.
system.cpu1.branchPred.RASInCorrect               484                       # Number of incorrect RAS predictions.
system.cpu1.branchPred.indirectLookups        8239122                       # Number of indirect predictor lookups.
system.cpu1.branchPred.indirectHits           4579643                       # Number of indirect target hits.
system.cpu1.branchPred.indirectMisses         3659479                       # Number of indirect misses.
system.cpu1.branchPredindirectMispredicted         4760                       # Number of mispredicted indirect branches.
system.cpu1.clk_domain.clock                      500                       # Clock period in ticks
system.cpu1.dtb.walker.pwrStateResidencyTicks::UNDEFINED  35931052000                       # Cumulative time (in ticks) in various power states
system.cpu1.apic_clk_domain.clock                8000                       # Clock period in ticks
system.cpu1.interrupts.pwrStateResidencyTicks::UNDEFINED  35931052000                       # Cumulative time (in ticks) in various power states
system.cpu1.itb.walker.pwrStateResidencyTicks::UNDEFINED  35931052000                       # Cumulative time (in ticks) in various power states
system.cpu1.workload.num_syscalls              469288                       # Number of system calls
system.cpu1.pwrStateResidencyTicks::ON    35931052000                       # Cumulative time (in ticks) in various power states
system.cpu1.numCycles                        54007244                       # number of cpu cycles simulated
system.cpu1.numWorkItemsStarted                     0                       # number of work items this cpu started
system.cpu1.numWorkItemsCompleted                   0                       # number of work items this cpu completed
system.cpu1.fetch.icacheStallCycles           3128921                       # Number of cycles fetch is stalled on an Icache miss
system.cpu1.fetch.Insts                      24937593                       # Number of instructions fetch has processed
system.cpu1.fetch.Branches                    8732072                       # Number of branches that fetch encountered
system.cpu1.fetch.predictedBranches           5051410                       # Number of branches that fetch has predicted taken
system.cpu1.fetch.Cycles                     50766106                       # Number of cycles fetch has run and was not squashing or blocked
system.cpu1.fetch.SquashCycles                  17533                       # Number of cycles fetch has spent squashing
system.cpu1.fetch.MiscStallCycles               11668                       # Number of cycles fetch has spent waiting on interrupts, or bad addresses, or out of MSHRs
system.cpu1.fetch.NoActiveThreadStallCycles           10                       # Number of stall cycles due to no active thread to fetch from
system.cpu1.fetch.PendingTrapStallCycles          420                       # Number of stall cycles due to pending traps
system.cpu1.fetch.PendingQuiesceStallCycles           13                       # Number of stall cycles due to pending quiesce instructions
system.cpu1.fetch.IcacheWaitRetryStallCycles         6587                       # Number of stall cycles due to full MSHR
system.cpu1.fetch.CacheLines                  3099636                       # Number of cache lines fetched
system.cpu1.fetch.IcacheSquashes                 2609                       # Number of outstanding Icache misses that were squashed
system.cpu1.fetch.rateDist::samples          53922491                       # Number of instructions fetched each cycle (Total)
system.cpu1.fetch.rateDist::mean             0.923824                       # Number of instructions fetched each cycle (Total)
system.cpu1.fetch.rateDist::stdev            2.290309                       # Number of instructions fetched each cycle (Total)
system.cpu1.fetch.rateDist::underflows              0      0.00%      0.00% # Number of instructions fetched each cycle (Total)
system.cpu1.fetch.rateDist::0                45395805     84.19%     84.19% # Number of instructions fetched each cycle (Total)
system.cpu1.fetch.rateDist::1                    8412      0.02%     84.20% # Number of instructions fetched each cycle (Total)
system.cpu1.fetch.rateDist::2                  238174      0.44%     84.64% # Number of instructions fetched each cycle (Total)
system.cpu1.fetch.rateDist::3                  946736      1.76%     86.40% # Number of instructions fetched each cycle (Total)
system.cpu1.fetch.rateDist::4                 2681562      4.97%     91.37% # Number of instructions fetched each cycle (Total)
system.cpu1.fetch.rateDist::5                    8149      0.02%     91.39% # Number of instructions fetched each cycle (Total)
system.cpu1.fetch.rateDist::6                  240908      0.45%     91.84% # Number of instructions fetched each cycle (Total)
system.cpu1.fetch.rateDist::7                  944499      1.75%     93.59% # Number of instructions fetched each cycle (Total)
system.cpu1.fetch.rateDist::8                 3458246      6.41%    100.00% # Number of instructions fetched each cycle (Total)
system.cpu1.fetch.rateDist::overflows               0      0.00%    100.00% # Number of instructions fetched each cycle (Total)
system.cpu1.fetch.rateDist::min_value               0                       # Number of instructions fetched each cycle (Total)
system.cpu1.fetch.rateDist::max_value               8                       # Number of instructions fetched each cycle (Total)
system.cpu1.fetch.rateDist::total            53922491                       # Number of instructions fetched each cycle (Total)
system.cpu1.fetch.branchRate                 0.161683                       # Number of branch fetches per cycle
system.cpu1.fetch.rate                       0.461745                       # Number of inst fetches per cycle
system.cpu1.decode.IdleCycles                 1770964                       # Number of cycles decode is idle
system.cpu1.decode.BlockedCycles             45797995                       # Number of cycles decode is blocked
system.cpu1.decode.RunCycles                  1732344                       # Number of cycles decode is running
system.cpu1.decode.UnblockCycles              4612412                       # Number of cycles decode is unblocking
system.cpu1.decode.SquashCycles                  8766                       # Number of cycles decode is squashing
system.cpu1.decode.DecodedInsts              49731690                       # Number of instructions handled by decode
system.cpu1.rename.SquashCycles                  8766                       # Number of cycles rename is squashing
system.cpu1.rename.IdleCycles                 2930460                       # Number of cycles rename is idle
system.cpu1.rename.BlockCycles                7627863                       # Number of cycles rename is blocking
system.cpu1.rename.serializeStallCycles      31743919                       # count of cycles rename stalled for serializing inst
system.cpu1.rename.RunCycles                  3444015                       # Number of cycles rename is running
system.cpu1.rename.UnblockCycles              8167458                       # Number of cycles rename is unblocking
system.cpu1.rename.RenamedInsts              49689775                       # Number of instructions processed by rename
system.cpu1.rename.ROBFullEvents              4509155                       # Number of times rename has blocked due to ROB full
system.cpu1.rename.IQFullEvents                 12408                       # Number of times rename has blocked due to IQ full
system.cpu1.rename.LQFullEvents               1874810                       # Number of times rename has blocked due to LQ full
system.cpu1.rename.SQFullEvents                 34575                       # Number of times rename has blocked due to SQ full
system.cpu1.rename.RenamedOperands           54272991                       # Number of destination operands rename has renamed
system.cpu1.rename.RenameLookups            111120304                       # Number of register rename lookups that rename has made
system.cpu1.rename.int_rename_lookups        54476814                       # Number of integer rename lookups
system.cpu1.rename.fp_rename_lookups            18951                       # Number of floating rename lookups
system.cpu1.rename.CommittedMaps             53762417                       # Number of HB maps that are committed
system.cpu1.rename.UndoneMaps                  510574                       # Number of HB maps that are undone due to squashing
system.cpu1.rename.serializingInsts            469323                       # count of serializing insts renamed
system.cpu1.rename.tempSerializingInsts        469326                       # count of temporary serializing insts renamed
system.cpu1.rename.skidInsts                 29463848                       # count of insts added to the skid buffer
system.cpu1.memDep0.insertedLoads             7313219                       # Number of loads inserted to the mem dependence unit.
system.cpu1.memDep0.insertedStores             491323                       # Number of stores inserted to the mem dependence unit.
system.cpu1.memDep0.conflictingLoads             1328                       # Number of conflicting loads.
system.cpu1.memDep0.conflictingStores             365                       # Number of conflicting stores.
system.cpu1.iq.iqInstsAdded                  49143814                       # Number of instructions added to the IQ (excludes non-spec)
system.cpu1.iq.iqNonSpecInstsAdded             469356                       # Number of non-speculative instructions added to the IQ
system.cpu1.iq.iqInstsIssued                 49612442                       # Number of instructions issued
system.cpu1.iq.iqSquashedInstsIssued             6757                       # Number of squashed instructions issued
system.cpu1.iq.iqSquashedInstsExamined         337943                       # Number of squashed instructions iterated over during squash; mainly for profiling
system.cpu1.iq.iqSquashedOperandsExamined       508138                       # Number of squashed operands that are examined and possibly removed from graph
system.cpu1.iq.iqSquashedNonSpecRemoved            68                       # Number of squashed non-spec instructions that were removed
system.cpu1.iq.issued_per_cycle::samples     53922491                       # Number of insts issued each cycle
system.cpu1.iq.issued_per_cycle::mean        0.920070                       # Number of insts issued each cycle
system.cpu1.iq.issued_per_cycle::stdev       1.574084                       # Number of insts issued each cycle
system.cpu1.iq.issued_per_cycle::underflows            0      0.00%      0.00% # Number of insts issued each cycle
system.cpu1.iq.issued_per_cycle::0           34147694     63.33%     63.33% # Number of insts issued each cycle
system.cpu1.iq.issued_per_cycle::1            7901244     14.65%     77.98% # Number of insts issued each cycle
system.cpu1.iq.issued_per_cycle::2            3276423      6.08%     84.06% # Number of insts issued each cycle
system.cpu1.iq.issued_per_cycle::3            4171127      7.74%     91.79% # Number of insts issued each cycle
[...]
system.ruby.L1Cache_Controller.Request_Timeout::total         7570                      
system.ruby.L1Cache_Controller.Use_TimeoutNoStarvers |        3590     24.30%     24.30% |        3590     24.30%     48.60% |        3651     24.71%     73.31% |        3728     25.23%     98.54% |         216      1.46%    100.00%
system.ruby.L1Cache_Controller.Use_TimeoutNoStarvers::total        14775                      
system.ruby.L1Cache_Controller.NP.Load   |        2245     24.52%     24.52% |        2215     24.20%     48.72% |        2227     24.33%     73.05% |        2255     24.63%     97.68% |         212      2.32%    100.00%
system.ruby.L1Cache_Controller.NP.Load::total         9154                      
system.ruby.L1Cache_Controller.NP.Ifetch |        1191     24.97%     24.97% |        1187     24.88%     49.85% |        1188     24.91%     74.76% |        1204     25.24%    100.00% |           0      0.00%    100.00%
system.ruby.L1Cache_Controller.NP.Ifetch::total         4770                      
system.ruby.L1Cache_Controller.NP.Store  |         514     22.84%     22.84% |         518     23.02%     45.87% |         579     25.73%     71.60% |         639     28.40%    100.00% |           0      0.00%    100.00%
system.ruby.L1Cache_Controller.NP.Store::total         2250                      
system.ruby.L1Cache_Controller.NP.Transient_Local_GETX |        1867     19.25%     19.25% |        1867     19.25%     38.49% |        1805     18.61%     57.10% |        1739     17.93%     75.03% |        2422     24.97%    100.00%
system.ruby.L1Cache_Controller.NP.Transient_Local_GETX::total         9700                      
system.ruby.L1Cache_Controller.NP.Transient_Local_GETS |       10490     18.90%     18.90% |       10511     18.94%     37.83% |       10450     18.83%     56.66% |       10345     18.64%     75.30% |       13712     24.70%    100.00%
system.ruby.L1Cache_Controller.NP.Transient_Local_GETS::total        55508                      
system.ruby.L1Cache_Controller.NP.Own_Lock_or_Unlock |         756     16.40%     16.40% |         940     20.39%     36.78% |         829     17.98%     54.76% |         937     20.32%     75.08% |        1149     24.92%    100.00%
system.ruby.L1Cache_Controller.NP.Own_Lock_or_Unlock::total         4611                      
system.ruby.L1Cache_Controller.I.Load    |           2     25.00%     25.00% |           2     25.00%     50.00% |           2     25.00%     75.00% |           2     25.00%    100.00% |           0      0.00%    100.00%
system.ruby.L1Cache_Controller.I.Load::total            8                      
system.ruby.L1Cache_Controller.S.Load    |     3275738     26.75%     26.75% |     4091795     33.41%     60.16% |     4874315     39.80%     99.96% |        4755      0.04%    100.00% |           0      0.00%    100.00%
system.ruby.L1Cache_Controller.S.Load::total     12246603                      
system.ruby.L1Cache_Controller.S.Ifetch  |      942421     10.21%     10.21% |     3051516     33.06%     43.27% |     2775412     30.07%     73.33% |     2461912     26.67%    100.00% |           0      0.00%    100.00%
system.ruby.L1Cache_Controller.S.Ifetch::total      9231261                      
system.ruby.L1Cache_Controller.S.Store   |          44     25.43%     25.43% |          40     23.12%     48.55% |          41     23.70%     72.25% |          47     27.17%     99.42% |           1      0.58%    100.00%
system.ruby.L1Cache_Controller.S.Store::total          173                      
system.ruby.L1Cache_Controller.S.L1_Replacement |         217     27.89%     27.89% |         179     23.01%     50.90% |         180     23.14%     74.04% |         202     25.96%    100.00% |           0      0.00%    100.00%
system.ruby.L1Cache_Controller.S.L1_Replacement::total          778                      
system.ruby.L1Cache_Controller.S.Transient_Local_GETX |           1     33.33%     33.33% |           1     33.33%     66.67% |           1     33.33%    100.00% |           0      0.00%    100.00% |           0      0.00%    100.00%
system.ruby.L1Cache_Controller.S.Transient_Local_GETX::total            3                      
system.ruby.L1Cache_Controller.O.Load    |           0      0.00%      0.00% |           0      0.00%      0.00% |           0      0.00%      0.00% |     2453282    100.00%    100.00% |           9      0.00%    100.00%
system.ruby.L1Cache_Controller.O.Load::total      2453291                      
system.ruby.L1Cache_Controller.O.Store   |           0      0.00%      0.00% |           0      0.00%      0.00% |           0      0.00%      0.00% |           0      0.00%      0.00% |           3    100.00%    100.00%
system.ruby.L1Cache_Controller.O.Store::total            3                      
system.ruby.L1Cache_Controller.O.Transient_Local_GETX |           0      0.00%      0.00% |           0      0.00%      0.00% |           0      0.00%      0.00% |           1    100.00%    100.00% |           0      0.00%    100.00%
system.ruby.L1Cache_Controller.O.Transient_Local_GETX::total            1                      
system.ruby.L1Cache_Controller.O.Own_Lock_or_Unlock |           0      0.00%      0.00% |           0      0.00%      0.00% |           0      0.00%      0.00% |           1    100.00%    100.00% |           0      0.00%    100.00%
system.ruby.L1Cache_Controller.O.Own_Lock_or_Unlock::total            1                      
system.ruby.L1Cache_Controller.M.Load    |       16901     21.00%     21.00% |       17312     21.51%     42.52% |       20043     24.91%     67.43% |       23315     28.97%     96.40% |        2895      3.60%    100.00%
system.ruby.L1Cache_Controller.M.Load::total        80466                      
system.ruby.L1Cache_Controller.M.Ifetch  |      750846     13.81%     13.81% |       46332      0.85%     14.66% |     2128684     39.15%     53.81% |     2512005     46.19%    100.00% |           0      0.00%    100.00%
system.ruby.L1Cache_Controller.M.Ifetch::total      5437867                      
system.ruby.L1Cache_Controller.M.Store   |          47     12.21%     12.21% |          46     11.95%     24.16% |          43     11.17%     35.32% |          41     10.65%     45.97% |         208     54.03%    100.00%
system.ruby.L1Cache_Controller.M.Store::total          385                      
system.ruby.L1Cache_Controller.M.L1_Replacement |        1680     24.08%     24.08% |        1693     24.27%     48.34% |        1761     25.24%     73.58% |        1843     26.42%    100.00% |           0      0.00%    100.00%
system.ruby.L1Cache_Controller.M.L1_Replacement::total         6977                      
system.ruby.L1Cache_Controller.M.Transient_Local_GETS |           0      0.00%      0.00% |           0      0.00%      0.00% |           0      0.00%      0.00% |           0      0.00%      0.00% |           3    100.00%    100.00%
system.ruby.L1Cache_Controller.M.Transient_Local_GETS::total            3                      
system.ruby.L1Cache_Controller.M.Persistent_GETS |           0      0.00%      0.00% |           0      0.00%      0.00% |           0      0.00%      0.00% |           0      0.00%      0.00% |           1    100.00%    100.00%
system.ruby.L1Cache_Controller.M.Persistent_GETS::total            1                      
system.ruby.L1Cache_Controller.M.Own_Lock_or_Unlock |         248     31.47%     31.47% |         163     20.69%     52.16% |         183     23.22%     75.38% |         194     24.62%    100.00% |           0      0.00%    100.00%
system.ruby.L1Cache_Controller.M.Own_Lock_or_Unlock::total          788                      
system.ruby.L1Cache_Controller.MM.Load   |      257583     17.11%     17.11% |      490003     32.55%     49.67% |      722100     47.97%     97.64% |       35525      2.36%    100.00% |           0      0.00%    100.00%
system.ruby.L1Cache_Controller.MM.Load::total      1505211                      
system.ruby.L1Cache_Controller.MM.Store  |      244270     16.94%     16.94% |      478544     33.19%     50.13% |      703882     48.82%     98.95% |       12083      0.84%     99.78% |        3112      0.22%    100.00%
system.ruby.L1Cache_Controller.MM.Store::total      1441891                      
system.ruby.L1Cache_Controller.MM.L1_Replacement |         528     25.18%     25.18% |         520     24.80%     49.98% |         522     24.89%     74.87% |         526     25.08%     99.95% |           1      0.05%    100.00%
system.ruby.L1Cache_Controller.MM.L1_Replacement::total         2097                      
system.ruby.L1Cache_Controller.MM.Transient_Local_GETS |           4      1.89%      1.89% |          17      8.02%      9.91% |          65     30.66%     40.57% |         126     59.43%    100.00% |           0      0.00%    100.00%
system.ruby.L1Cache_Controller.MM.Transient_Local_GETS::total          212                      
system.ruby.L1Cache_Controller.MM.Persistent_GETS |           0      0.00%      0.00% |           0      0.00%      0.00% |           0      0.00%      0.00% |           0      0.00%      0.00% |           4    100.00%    100.00%
system.ruby.L1Cache_Controller.MM.Persistent_GETS::total            4                      
system.ruby.L1Cache_Controller.MM.Own_Lock_or_Unlock |         150     41.10%     41.10% |          51     13.97%     55.07% |         142     38.90%     93.97% |          22      6.03%    100.00% |           0      0.00%    100.00%
system.ruby.L1Cache_Controller.MM.Own_Lock_or_Unlock::total          365                      
system.ruby.L1Cache_Controller.M_W.Load  |       11082     24.71%     24.71% |       11160     24.89%     49.60% |       11055     24.65%     74.25% |       11335     25.28%     99.53% |         212      0.47%    100.00%
system.ruby.L1Cache_Controller.M_W.Load::total        44844                      
system.ruby.L1Cache_Controller.M_W.Ifetch |         422     25.15%     25.15% |         423     25.21%     50.36% |         417     24.85%     75.21% |         416     24.79%    100.00% |           0      0.00%    100.00%
system.ruby.L1Cache_Controller.M_W.Ifetch::total         1678                      
system.ruby.L1Cache_Controller.M_W.Store |          11     26.19%     26.19% |          12     28.57%     54.76% |           9     21.43%     76.19% |          10     23.81%    100.00% |           0      0.00%    100.00%
system.ruby.L1Cache_Controller.M_W.Store::total           42                      
system.ruby.L1Cache_Controller.M_W.Transient_Local_GETS |           0      0.00%      0.00% |           0      0.00%      0.00% |           0      0.00%      0.00% |           0      0.00%      0.00% |           1    100.00%    100.00%
system.ruby.L1Cache_Controller.M_W.Transient_Local_GETS::total            1                      
system.ruby.L1Cache_Controller.M_W.Own_Lock_or_Unlock |          17     19.54%     19.54% |          27     31.03%     50.57% |          21     24.14%     74.71% |          22     25.29%    100.00% |           0      0.00%    100.00%
system.ruby.L1Cache_Controller.M_W.Own_Lock_or_Unlock::total           87                      
system.ruby.L1Cache_Controller.M_W.Use_TimeoutNoStarvers |        3021     24.55%     24.55% |        3020     24.54%     49.09% |        3022     24.56%     73.64% |        3032     24.64%     98.28% |         212      1.72%    100.00%
system.ruby.L1Cache_Controller.M_W.Use_TimeoutNoStarvers::total        12307                      
system.ruby.L1Cache_Controller.MM_W.Load |          42     28.38%     28.38% |          36     24.32%     52.70% |          33     22.30%     75.00% |          37     25.00%    100.00% |           0      0.00%    100.00%
system.ruby.L1Cache_Controller.MM_W.Load::total          148                      
system.ruby.L1Cache_Controller.MM_W.Store |        2038     22.71%     22.71% |        2080     23.18%     45.89% |        2287     25.48%     71.37% |        2565     28.58%     99.96% |           4      0.04%    100.00%
system.ruby.L1Cache_Controller.MM_W.Store::total         8974                      
system.ruby.L1Cache_Controller.MM_W.Transient_Local_GETS |           0      0.00%      0.00% |           0      0.00%      0.00% |           0      0.00%      0.00% |           0      0.00%      0.00% |           4    100.00%    100.00%
system.ruby.L1Cache_Controller.MM_W.Transient_Local_GETS::total            4                      
system.ruby.L1Cache_Controller.MM_W.Own_Lock_or_Unlock |           4     23.53%     23.53% |           2     11.76%     35.29% |           6     35.29%     70.59% |           5     29.41%    100.00% |           0      0.00%    100.00%
system.ruby.L1Cache_Controller.MM_W.Own_Lock_or_Unlock::total           17                      
system.ruby.L1Cache_Controller.MM_W.Use_TimeoutNoStarvers |         569     23.06%     23.06% |         570     23.10%     46.15% |         629     25.49%     71.64% |         696     28.20%     99.84% |           4      0.16%    100.00%
system.ruby.L1Cache_Controller.MM_W.Use_TimeoutNoStarvers::total         2468                      
system.ruby.L1Cache_Controller.IM.Data_All_Tokens |         514     22.84%     22.84% |         518     23.02%     45.87% |         579     25.73%     71.60% |         639     28.40%    100.00% |           0      0.00%    100.00%
system.ruby.L1Cache_Controller.IM.Data_All_Tokens::total         2250                      
system.ruby.L1Cache_Controller.IM.Own_Lock_or_Unlock |         146     42.32%     42.32% |          48     13.91%     56.23% |         135     39.13%     95.36% |          16      4.64%    100.00% |           0      0.00%    100.00%
system.ruby.L1Cache_Controller.IM.Own_Lock_or_Unlock::total          345                      
system.ruby.L1Cache_Controller.IM.Request_Timeout |         344     29.50%     29.50% |         269     23.07%     52.57% |         359     30.79%     83.36% |         194     16.64%    100.00% |           0      0.00%    100.00%
system.ruby.L1Cache_Controller.IM.Request_Timeout::total         1166                      
system.ruby.L1Cache_Controller.SM.Data_All_Tokens |          44     25.43%     25.43% |          40     23.12%     48.55% |          41     23.70%     72.25% |          47     27.17%     99.42% |           1      0.58%    100.00%
system.ruby.L1Cache_Controller.SM.Data_All_Tokens::total          173                      
system.ruby.L1Cache_Controller.OM.Ack_All_Tokens |           0      0.00%      0.00% |           0      0.00%      0.00% |           0      0.00%      0.00% |           0      0.00%      0.00% |           3    100.00%    100.00%
system.ruby.L1Cache_Controller.OM.Ack_All_Tokens::total            3                      
system.ruby.L1Cache_Controller.IS.Data_Shared |         406     25.70%     25.70% |         372     23.54%     49.24% |         384     24.30%     73.54% |         418     26.46%    100.00% |           0      0.00%    100.00%
system.ruby.L1Cache_Controller.IS.Data_Shared::total         1580                      
system.ruby.L1Cache_Controller.IS.Data_Owner |           0      0.00%      0.00% |           0      0.00%      0.00% |           0      0.00%      0.00% |           1    100.00%    100.00% |           0      0.00%    100.00%
system.ruby.L1Cache_Controller.IS.Data_Owner::total            1                      
system.ruby.L1Cache_Controller.IS.Data_All_Tokens |        3032     24.55%     24.55% |        3032     24.55%     49.10% |        3033     24.56%     73.65% |        3042     24.63%     98.28% |         212      1.72%    100.00%
system.ruby.L1Cache_Controller.IS.Data_All_Tokens::total        12351                      
system.ruby.L1Cache_Controller.IS.Own_Lock_or_Unlock |         231     32.77%     32.77% |         137     19.43%     52.20% |         163     23.12%     75.32% |         174     24.68%    100.00% |           0      0.00%    100.00%
system.ruby.L1Cache_Controller.IS.Own_Lock_or_Unlock::total          705                      
system.ruby.L1Cache_Controller.IS.Request_Timeout |        1925     30.06%     30.06% |        1449     22.63%     52.69% |        1442     22.52%     75.20% |        1588     24.80%    100.00% |           0      0.00%    100.00%
system.ruby.L1Cache_Controller.IS.Request_Timeout::total         6404                      
system.ruby.L1Cache_Controller.I_L.Persistent_GETX |         212     14.64%     14.64% |         312     21.55%     36.19% |         221     15.26%     51.45% |         341     23.55%     75.00% |         362     25.00%    100.00%
system.ruby.L1Cache_Controller.I_L.Persistent_GETX::total         1448                      
system.ruby.L1Cache_Controller.I_L.Persistent_GETS |         544     17.20%     17.20% |         628     19.85%     37.05% |         608     19.22%     56.28% |         596     18.84%     75.12% |         787     24.88%    100.00%
system.ruby.L1Cache_Controller.I_L.Persistent_GETS::total         3163                      
system.ruby.L1Cache_Controller.I_L.Own_Lock_or_Unlock |           0      0.00%      0.00% |           0      0.00%      0.00% |           0      0.00%      0.00% |           0      0.00%      0.00% |           4    100.00%    100.00%
system.ruby.L1Cache_Controller.I_L.Own_Lock_or_Unlock::total            4                      
system.ruby.L1Cache_Controller.S_L.Own_Lock_or_Unlock |           0      0.00%      0.00% |           0      0.00%      0.00% |           0      0.00%      0.00% |           0      0.00%      0.00% |           1    100.00%    100.00%
system.ruby.L1Cache_Controller.S_L.Own_Lock_or_Unlock::total            1                      
system.ruby.L2Cache_Controller.L1_GETS          13932      0.00%      0.00%
system.ruby.L2Cache_Controller.L1_GETX           2426      0.00%      0.00%
system.ruby.L2Cache_Controller.L1_INV             220      0.00%      0.00%
system.ruby.L2Cache_Controller.Writeback_Shared_Data            1      0.00%      0.00%
system.ruby.L2Cache_Controller.Writeback_All_Tokens         9851      0.00%      0.00%
system.ruby.L2Cache_Controller.Persistent_GETX          362      0.00%      0.00%
system.ruby.L2Cache_Controller.Persistent_GETS          792      0.00%      0.00%
system.ruby.L2Cache_Controller.Own_Lock_or_Unlock         1154      0.00%      0.00%
system.ruby.L2Cache_Controller.NP.L1_GETS        12343      0.00%      0.00%
system.ruby.L2Cache_Controller.NP.L1_GETX         2079      0.00%      0.00%
system.ruby.L2Cache_Controller.NP.L1_INV          208      0.00%      0.00%
system.ruby.L2Cache_Controller.NP.Writeback_All_Tokens         8911      0.00%      0.00%
system.ruby.L2Cache_Controller.NP.Own_Lock_or_Unlock         1149      0.00%      0.00%
system.ruby.L2Cache_Controller.I.L1_GETS           12      0.00%      0.00%
system.ruby.L2Cache_Controller.I.L1_GETX            4      0.00%      0.00%
system.ruby.L2Cache_Controller.I.L1_INV             8      0.00%      0.00%
system.ruby.L2Cache_Controller.I.Writeback_All_Tokens          163      0.00%      0.00%
system.ruby.L2Cache_Controller.I.Persistent_GETS            5      0.00%      0.00%
system.ruby.L2Cache_Controller.O.L1_GETS            1      0.00%      0.00%
system.ruby.L2Cache_Controller.O.L1_GETX          172      0.00%      0.00%
system.ruby.L2Cache_Controller.O.Writeback_Shared_Data            1      0.00%      0.00%
system.ruby.L2Cache_Controller.O.Writeback_All_Tokens          777      0.00%      0.00%
system.ruby.L2Cache_Controller.M.L1_GETS         1576      0.00%      0.00%
system.ruby.L2Cache_Controller.M.L1_GETX          171      0.00%      0.00%
system.ruby.L2Cache_Controller.I_L.L1_INV            4      0.00%      0.00%
system.ruby.L2Cache_Controller.I_L.Persistent_GETX          362      0.00%      0.00%
system.ruby.L2Cache_Controller.I_L.Persistent_GETS          787      0.00%      0.00%
system.ruby.L2Cache_Controller.I_L.Own_Lock_or_Unlock            5      0.00%      0.00%

---------- End Simulation Statistics   ----------
