
---------- Begin Simulation Statistics ----------
sim_seconds                                  0.022066                       # Number of seconds simulated
sim_ticks                                 22065626500                       # Number of ticks simulated
final_tick                                22065626500                       # Number of ticks from beginning of simulation (restored from checkpoints and never reset)
sim_freq                                 1000000000000                       # Frequency of simulated ticks
host_inst_rate                                  49405                       # Simulator instruction rate (inst/s)
host_op_rate                                    97016                       # Simulator op (including micro ops) rate (op/s)
host_tick_rate                               19261991                       # Simulator tick rate (ticks/s)
host_mem_usage                                 850784                       # Number of bytes of host memory used
host_seconds                                  1145.55                       # Real time elapsed on the host
sim_insts                                    56596423                       # Number of instructions simulated
sim_ops                                     111136881                       # Number of ops (including micro ops) simulated
system.voltage_domain.voltage                       1                       # Voltage in Volts
system.clk_domain.clock                          1000                       # Clock period in ticks
system.mem_ctrls.pwrStateResidencyTicks::UNDEFINED  22065626500                       # Cumulative time (in ticks) in various power states
system.mem_ctrls.bytes_read::ruby.dir_cntrl0      1684032                       # Number of bytes read from this memory
system.mem_ctrls.bytes_read::total            1684032                       # Number of bytes read from this memory
system.mem_ctrls.bytes_written::ruby.dir_cntrl0         1088                       # Number of bytes written to this memory
system.mem_ctrls.bytes_written::total            1088                       # Number of bytes written to this memory
system.mem_ctrls.num_reads::ruby.dir_cntrl0        26313                       # Number of read requests responded to by this memory
system.mem_ctrls.num_reads::total               26313                       # Number of read requests responded to by this memory
system.mem_ctrls.num_writes::ruby.dir_cntrl0           17                       # Number of write requests responded to by this memory
system.mem_ctrls.num_writes::total                 17                       # Number of write requests responded to by this memory
system.mem_ctrls.bw_read::ruby.dir_cntrl0     76319247                       # Total read bandwidth from this memory (bytes/s)
system.mem_ctrls.bw_read::total              76319247                       # Total read bandwidth from this memory (bytes/s)
system.mem_ctrls.bw_write::ruby.dir_cntrl0        49307                       # Write bandwidth from this memory (bytes/s)
system.mem_ctrls.bw_write::total                49307                       # Write bandwidth from this memory (bytes/s)
system.mem_ctrls.bw_total::ruby.dir_cntrl0     76368555                       # Total bandwidth to/from this memory (bytes/s)
system.mem_ctrls.bw_total::total             76368555                       # Total bandwidth to/from this memory (bytes/s)
system.mem_ctrls.readReqs                       26313                       # Number of read requests accepted
system.mem_ctrls.avgNetLat                       0.00                       # Average network latency to DRAM controller
system.mem_ctrls.writeReqs                         17                       # Number of write requests accepted
system.mem_ctrls.readBursts                     26313                       # Number of DRAM read bursts, including those serviced by the write queue
system.mem_ctrls.writeBursts                       17                       # Number of DRAM write bursts, including those merged in the write queue
system.mem_ctrls.bytesReadDRAM                1683648                       # Total number of bytes read from DRAM
system.mem_ctrls.bytesReadWrQ                     384                       # Total number of bytes read from write queue
system.mem_ctrls.bytesWritten                       0                       # Total number of bytes written to DRAM
system.mem_ctrls.bytesReadSys                 1684032                       # Total read bytes from the system interface side
system.mem_ctrls.bytesWrittenSys                 1088                       # Total written bytes from the system interface side
system.mem_ctrls.servicedByWrQ                      6                       # Number of DRAM read bursts serviced by the write queue
system.mem_ctrls.mergedWrBursts                     0                       # Number of DRAM write bursts merged with an existing one
system.mem_ctrls.neitherReadNorWriteReqs            0                       # Number of requests that are neither read nor write
system.mem_ctrls.perBankRdBursts::0              1636                       # Per bank write bursts
system.mem_ctrls.perBankRdBursts::1              1610                       # Per bank write bursts
system.mem_ctrls.perBankRdBursts::2              1522                       # Per bank write bursts
system.mem_ctrls.perBankRdBursts::3              1390                       # Per bank write bursts
system.mem_ctrls.perBankRdBursts::4              1455                       # Per bank write bursts
system.mem_ctrls.perBankRdBursts::5              1842                       # Per bank write bursts
system.mem_ctrls.perBankRdBursts::6              1939                       # Per bank write bursts
system.mem_ctrls.perBankRdBursts::7              1723                       # Per bank write bursts
system.mem_ctrls.perBankRdBursts::8              1628                       # Per bank write bursts
system.mem_ctrls.perBankRdBursts::9              1537                       # Per bank write bursts
system.mem_ctrls.perBankRdBursts::10             1490                       # Per bank write bursts
system.mem_ctrls.perBankRdBursts::11             1650                       # Per bank write bursts
system.mem_ctrls.perBankRdBursts::12             1775                       # Per bank write bursts
system.mem_ctrls.perBankRdBursts::13             1741                       # Per bank write bursts
system.mem_ctrls.perBankRdBursts::14             1691                       # Per bank write bursts
system.mem_ctrls.perBankRdBursts::15             1678                       # Per bank write bursts
system.mem_ctrls.perBankWrBursts::0                 0                       # Per bank write bursts
system.mem_ctrls.perBankWrBursts::1                 0                       # Per bank write bursts
system.mem_ctrls.perBankWrBursts::2                 0                       # Per bank write bursts
system.mem_ctrls.perBankWrBursts::3                 0                       # Per bank write bursts
system.mem_ctrls.perBankWrBursts::4                 0                       # Per bank write bursts
system.mem_ctrls.perBankWrBursts::5                 0                       # Per bank write bursts
system.mem_ctrls.perBankWrBursts::6                 0                       # Per bank write bursts
system.mem_ctrls.perBankWrBursts::7                 0                       # Per bank write bursts
system.mem_ctrls.perBankWrBursts::8                 0                       # Per bank write bursts
system.mem_ctrls.perBankWrBursts::9                 0                       # Per bank write bursts
system.mem_ctrls.perBankWrBursts::10                0                       # Per bank write bursts
system.mem_ctrls.perBankWrBursts::11                0                       # Per bank write bursts
system.mem_ctrls.perBankWrBursts::12                0                       # Per bank write bursts
system.mem_ctrls.perBankWrBursts::13                0                       # Per bank write bursts
system.mem_ctrls.perBankWrBursts::14                0                       # Per bank write bursts
system.mem_ctrls.perBankWrBursts::15                0                       # Per bank write bursts
system.mem_ctrls.numRdRetry                         0                       # Number of times read queue was full causing retry
system.mem_ctrls.numWrRetry                         0                       # Number of times write queue was full causing retry
system.mem_ctrls.totGap                   22065561000                       # Total gap between requests
system.mem_ctrls.readPktSize::0                     0                       # Read request sizes (log2)
system.mem_ctrls.readPktSize::1                     0                       # Read request sizes (log2)
system.mem_ctrls.readPktSize::2                     0                       # Read request sizes (log2)
system.mem_ctrls.readPktSize::3                     0                       # Read request sizes (log2)
system.mem_ctrls.readPktSize::4                     0                       # Read request sizes (log2)
system.mem_ctrls.readPktSize::5                     0                       # Read request sizes (log2)
system.mem_ctrls.readPktSize::6                 26313                       # Read request sizes (log2)
system.mem_ctrls.writePktSize::0                    0                       # Write request sizes (log2)
system.mem_ctrls.writePktSize::1                    0                       # Write request sizes (log2)
system.mem_ctrls.writePktSize::2                    0                       # Write request sizes (log2)
system.mem_ctrls.writePktSize::3                    0                       # Write request sizes (log2)
system.mem_ctrls.writePktSize::4                    0                       # Write request sizes (log2)
system.mem_ctrls.writePktSize::5                    0                       # Write request sizes (log2)
system.mem_ctrls.writePktSize::6                   17                       # Write request sizes (log2)
system.mem_ctrls.rdQLenPdf::0                   13980                       # What read queue length does an incoming req see
system.mem_ctrls.rdQLenPdf::1                    2830                       # What read queue length does an incoming req see
system.mem_ctrls.rdQLenPdf::2                    2521                       # What read queue length does an incoming req see
system.mem_ctrls.rdQLenPdf::3                    1846                       # What read queue length does an incoming req see
system.mem_ctrls.rdQLenPdf::4                    1287                       # What read queue length does an incoming req see
system.mem_ctrls.rdQLenPdf::5                     966                       # What read queue length does an incoming req see
system.mem_ctrls.rdQLenPdf::6                     859                       # What read queue length does an incoming req see
system.mem_ctrls.rdQLenPdf::7                     747                       # What read queue length does an incoming req see
system.mem_ctrls.rdQLenPdf::8                     539                       # What read queue length does an incoming req see
system.mem_ctrls.rdQLenPdf::9                     334                       # What read queue length does an incoming req see
system.mem_ctrls.rdQLenPdf::10                    225                       # What read queue length does an incoming req see
system.mem_ctrls.rdQLenPdf::11                     97                       # What read queue length does an incoming req see
system.mem_ctrls.rdQLenPdf::12                     45                       # What read queue length does an incoming req see
system.mem_ctrls.rdQLenPdf::13                     19                       # What read queue length does an incoming req see
system.mem_ctrls.rdQLenPdf::14                      6                       # What read queue length does an incoming req see
system.mem_ctrls.rdQLenPdf::15                      4                       # What read queue length does an incoming req see
system.mem_ctrls.rdQLenPdf::16                      2                       # What read queue length does an incoming req see
system.mem_ctrls.rdQLenPdf::17                      0                       # What read queue length does an incoming req see
system.mem_ctrls.rdQLenPdf::18                      0                       # What read queue length does an incoming req see
system.mem_ctrls.rdQLenPdf::19                      0                       # What read queue length does an incoming req see
system.mem_ctrls.rdQLenPdf::20                      0                       # What read queue length does an incoming req see
system.mem_ctrls.rdQLenPdf::21                      0                       # What read queue length does an incoming req see
system.mem_ctrls.rdQLenPdf::22                      0                       # What read queue length does an incoming req see
system.mem_ctrls.rdQLenPdf::23                      0                       # What read queue length does an incoming req see
system.mem_ctrls.rdQLenPdf::24                      0                       # What read queue length does an incoming req see
system.mem_ctrls.rdQLenPdf::25                      0                       # What read queue length does an incoming req see
system.mem_ctrls.rdQLenPdf::26                      0                       # What read queue length does an incoming req see
system.mem_ctrls.rdQLenPdf::27                      0                       # What read queue length does an incoming req see
system.mem_ctrls.rdQLenPdf::28                      0                       # What read queue length does an incoming req see
system.mem_ctrls.rdQLenPdf::29                      0                       # What read queue length does an incoming req see
system.mem_ctrls.rdQLenPdf::30                      0                       # What read queue length does an incoming req see
system.mem_ctrls.rdQLenPdf::31                      0                       # What read queue length does an incoming req see
system.mem_ctrls.wrQLenPdf::0                       1                       # What write queue length does an incoming req see
system.mem_ctrls.wrQLenPdf::1                       1                       # What write queue length does an incoming req see
system.mem_ctrls.wrQLenPdf::2                       1                       # What write queue length does an incoming req see
system.mem_ctrls.wrQLenPdf::3                       1                       # What write queue length does an incoming req see
system.mem_ctrls.wrQLenPdf::4                       1                       # What write queue length does an incoming req see
system.mem_ctrls.wrQLenPdf::5                       1                       # What write queue length does an incoming req see
system.mem_ctrls.wrQLenPdf::6                       1                       # What write queue length does an incoming req see
system.mem_ctrls.wrQLenPdf::7                       1                       # What write queue length does an incoming req see
system.mem_ctrls.wrQLenPdf::8                       1                       # What write queue length does an incoming req see
system.mem_ctrls.wrQLenPdf::9                       1                       # What write queue length does an incoming req see
system.mem_ctrls.wrQLenPdf::10                      1                       # What write queue length does an incoming req see
system.mem_ctrls.wrQLenPdf::11                      1                       # What write queue length does an incoming req see
system.mem_ctrls.wrQLenPdf::12                      1                       # What write queue length does an incoming req see
system.mem_ctrls.wrQLenPdf::13                      1                       # What write queue length does an incoming req see
system.mem_ctrls.wrQLenPdf::14                      1                       # What write queue length does an incoming req see
system.mem_ctrls.wrQLenPdf::15                      1                       # What write queue length does an incoming req see
system.mem_ctrls.wrQLenPdf::16                      1                       # What write queue length does an incoming req see
system.mem_ctrls.wrQLenPdf::17                      0                       # What write queue length does an incoming req see
system.mem_ctrls.wrQLenPdf::18                      0                       # What write queue length does an incoming req see
system.mem_ctrls.wrQLenPdf::19                      0                       # What write queue length does an incoming req see
system.mem_ctrls.wrQLenPdf::20                      0                       # What write queue length does an incoming req see
system.mem_ctrls.wrQLenPdf::21                      0                       # What write queue length does an incoming req see
system.mem_ctrls.wrQLenPdf::22                      0                       # What write queue length does an incoming req see
system.mem_ctrls.wrQLenPdf::23                      0                       # What write queue length does an incoming req see
system.mem_ctrls.wrQLenPdf::24                      0                       # What write queue length does an incoming req see
system.mem_ctrls.wrQLenPdf::25                      0                       # What write queue length does an incoming req see
system.mem_ctrls.wrQLenPdf::26                      0                       # What write queue length does an incoming req see
system.mem_ctrls.wrQLenPdf::27                      0                       # What write queue length does an incoming req see
system.mem_ctrls.wrQLenPdf::28                      0                       # What write queue length does an incoming req see
system.mem_ctrls.wrQLenPdf::29                      0                       # What write queue length does an incoming req see
system.mem_ctrls.wrQLenPdf::30                      0                       # What write queue length does an incoming req see
system.mem_ctrls.wrQLenPdf::31                      0                       # What write queue length does an incoming req see
system.mem_ctrls.wrQLenPdf::32                      0                       # What write queue length does an incoming req see
system.mem_ctrls.wrQLenPdf::33                      0                       # What write queue length does an incoming req see
system.mem_ctrls.wrQLenPdf::34                      0                       # What write queue length does an incoming req see
system.mem_ctrls.wrQLenPdf::35                      0                       # What write queue length does an incoming req see
system.mem_ctrls.wrQLenPdf::36                      0                       # What write queue length does an incoming req see
system.mem_ctrls.wrQLenPdf::37                      0                       # What write queue length does an incoming req see
system.mem_ctrls.wrQLenPdf::38                      0                       # What write queue length does an incoming req see
system.mem_ctrls.wrQLenPdf::39                      0                       # What write queue length does an incoming req see
system.mem_ctrls.wrQLenPdf::40                      0                       # What write queue length does an incoming req see
system.mem_ctrls.wrQLenPdf::41                      0                       # What write queue length does an incoming req see
system.mem_ctrls.wrQLenPdf::42                      0                       # What write queue length does an incoming req see
system.mem_ctrls.wrQLenPdf::43                      0                       # What write queue length does an incoming req see
system.mem_ctrls.wrQLenPdf::44                      0                       # What write queue length does an incoming req see
system.mem_ctrls.wrQLenPdf::45                      0                       # What write queue length does an incoming req see
system.mem_ctrls.wrQLenPdf::46                      0                       # What write queue length does an incoming req see
system.mem_ctrls.wrQLenPdf::47                      0                       # What write queue length does an incoming req see
system.mem_ctrls.wrQLenPdf::48                      0                       # What write queue length does an incoming req see
system.mem_ctrls.wrQLenPdf::49                      0                       # What write queue length does an incoming req see
system.mem_ctrls.wrQLenPdf::50                      0                       # What write queue length does an incoming req see
system.mem_ctrls.wrQLenPdf::51                      0                       # What write queue length does an incoming req see
system.mem_ctrls.wrQLenPdf::52                      0                       # What write queue length does an incoming req see
system.mem_ctrls.wrQLenPdf::53                      0                       # What write queue length does an incoming req see
system.mem_ctrls.wrQLenPdf::54                      0                       # What write queue length does an incoming req see
system.mem_ctrls.wrQLenPdf::55                      0                       # What write queue length does an incoming req see
system.mem_ctrls.wrQLenPdf::56                      0                       # What write queue length does an incoming req see
system.mem_ctrls.wrQLenPdf::57                      0                       # What write queue length does an incoming req see
system.mem_ctrls.wrQLenPdf::58                      0                       # What write queue length does an incoming req see
system.mem_ctrls.wrQLenPdf::59                      0                       # What write queue length does an incoming req see
system.mem_ctrls.wrQLenPdf::60                      0                       # What write queue length does an incoming req see
system.mem_ctrls.wrQLenPdf::61                      0                       # What write queue length does an incoming req see
system.mem_ctrls.wrQLenPdf::62                      0                       # What write queue length does an incoming req see
system.mem_ctrls.wrQLenPdf::63                      0                       # What write queue length does an incoming req see
system.mem_ctrls.bytesPerActivate::samples         5183                       # Bytes accessed per row activation
system.mem_ctrls.bytesPerActivate::mean    324.556434                       # Bytes accessed per row activation
system.mem_ctrls.bytesPerActivate::gmean   178.756396                       # Bytes accessed per row activation
system.mem_ctrls.bytesPerActivate::stdev   352.589217                       # Bytes accessed per row activation
system.mem_ctrls.bytesPerActivate::0-127         2217     42.77%     42.77% # Bytes accessed per row activation
system.mem_ctrls.bytesPerActivate::128-255         1071     20.66%     63.44% # Bytes accessed per row activation
system.mem_ctrls.bytesPerActivate::256-383          329      6.35%     69.79% # Bytes accessed per row activation
system.mem_ctrls.bytesPerActivate::384-511          151      2.91%     72.70% # Bytes accessed per row activation
system.mem_ctrls.bytesPerActivate::512-639          116      2.24%     74.94% # Bytes accessed per row activation
system.mem_ctrls.bytesPerActivate::640-767          433      8.35%     83.29% # Bytes accessed per row activation
system.mem_ctrls.bytesPerActivate::768-895           60      1.16%     84.45% # Bytes accessed per row activation
system.mem_ctrls.bytesPerActivate::896-1023           57      1.10%     85.55% # Bytes accessed per row activation
system.mem_ctrls.bytesPerActivate::1024-1151          749     14.45%    100.00% # Bytes accessed per row activation
system.mem_ctrls.bytesPerActivate::total         5183                       # Bytes accessed per row activation
system.mem_ctrls.totQLat                    517999288                       # Total ticks spent queuing
system.mem_ctrls.totMemAccLat              1011255538                       # Total ticks spent from burst creation until serviced by the DRAM
system.mem_ctrls.totBusLat                  131535000                       # Total ticks spent in databus transfers
system.mem_ctrls.avgQLat                     19690.55                       # Average queueing delay per DRAM burst
system.mem_ctrls.avgBusLat                    5000.00                       # Average bus latency per DRAM burst
system.mem_ctrls.avgMemAccLat                38440.55                       # Average memory access latency per DRAM burst
system.mem_ctrls.avgRdBW                        76.30                       # Average DRAM read bandwidth in MiByte/s
system.mem_ctrls.avgWrBW                         0.00                       # Average achieved write bandwidth in MiByte/s
system.mem_ctrls.avgRdBWSys                     76.32                       # Average system read bandwidth in MiByte/s
system.mem_ctrls.avgWrBWSys                      0.05                       # Average system write bandwidth in MiByte/s
system.mem_ctrls.peakBW                      12800.00                       # Theoretical peak bandwidth in MiByte/s
system.mem_ctrls.busUtil                         0.60                       # Data bus utilization in percentage
system.mem_ctrls.busUtilRead                     0.60                       # Data bus utilization in percentage for reads
system.mem_ctrls.busUtilWrite                    0.00                       # Data bus utilization in percentage for writes
system.mem_ctrls.avgRdQLen                       1.03                       # Average read queue length when enqueuing
system.mem_ctrls.avgWrQLen                       5.30                       # Average write queue length when enqueuing
system.mem_ctrls.readRowHits                    21116                       # Number of row buffer hits during reads
system.mem_ctrls.writeRowHits                       0                       # Number of row buffer hits during writes
system.mem_ctrls.readRowHitRate                 80.27                       # Row buffer hit rate for reads
system.mem_ctrls.writeRowHitRate                 0.00                       # Row buffer hit rate for writes
system.mem_ctrls.avgGap                     838038.78                       # Average gap between requests
system.mem_ctrls.pageHitRate                    80.22                       # Row buffer hit rate, read and write combined
system.mem_ctrls_0.actEnergy                 17728620                       # Energy for activate commands per rank (pJ)
system.mem_ctrls_0.preEnergy                  9400215                       # Energy for precharge commands per rank (pJ)
system.mem_ctrls_0.readEnergy                93655380                       # Energy for read commands per rank (pJ)
system.mem_ctrls_0.writeEnergy                      0                       # Energy for write commands per rank (pJ)
system.mem_ctrls_0.refreshEnergy         118625520.000000                       # Energy for refresh commands per rank (pJ)
system.mem_ctrls_0.actBackEnergy            166147590                       # Energy for active background per rank (pJ)
system.mem_ctrls_0.preBackEnergy              3707040                       # Energy for precharge background per rank (pJ)
system.mem_ctrls_0.actPowerDownEnergy       474986700                       # Energy for active power-down per rank (pJ)
system.mem_ctrls_0.prePowerDownEnergy        23703360                       # Energy for precharge power-down per rank (pJ)
system.mem_ctrls_0.selfRefreshEnergy       4943388960                       # Energy for self refresh per rank (pJ)
system.mem_ctrls_0.totalEnergy             5851343385                       # Total energy per rank (pJ)
system.mem_ctrls_0.averagePower            265.179107                       # Core power per rank (mW)
system.mem_ctrls_0.totalIdleTime          21691639290                       # Total Idle time Per DRAM Rank
system.mem_ctrls_0.memoryStateTime::IDLE      2727750                       # Time in different power states
system.mem_ctrls_0.memoryStateTime::REF      50204000                       # Time in different power states
system.mem_ctrls_0.memoryStateTime::SREF  20588248750                       # Time in different power states
system.mem_ctrls_0.memoryStateTime::PRE_PDN     61721250                       # Time in different power states
system.mem_ctrls_0.memoryStateTime::ACT     321025210                       # Time in different power states
system.mem_ctrls_0.memoryStateTime::ACT_PDN   1041699540                       # Time in different power states
system.mem_ctrls_1.actEnergy                 19335120                       # Energy for activate commands per rank (pJ)
system.mem_ctrls_1.preEnergy                 10269270                       # Energy for precharge commands per rank (pJ)
system.mem_ctrls_1.readEnergy                94176600                       # Energy for read commands per rank (pJ)
system.mem_ctrls_1.writeEnergy                      0                       # Energy for write commands per rank (pJ)
system.mem_ctrls_1.refreshEnergy         116781600.000000                       # Energy for refresh commands per rank (pJ)
system.mem_ctrls_1.actBackEnergy            163607670                       # Energy for active background per rank (pJ)
system.mem_ctrls_1.preBackEnergy              3798240                       # Energy for precharge background per rank (pJ)
system.mem_ctrls_1.actPowerDownEnergy       465614760                       # Energy for active power-down per rank (pJ)
system.mem_ctrls_1.prePowerDownEnergy        24029280                       # Energy for precharge power-down per rank (pJ)
system.mem_ctrls_1.selfRefreshEnergy       4949397660                       # Energy for self refresh per rank (pJ)
system.mem_ctrls_1.totalEnergy             5847010200                       # Total energy per rank (pJ)
system.mem_ctrls_1.averagePower            264.982729                       # Core power per rank (mW)
system.mem_ctrls_1.totalIdleTime          21696735029                       # Total Idle time Per DRAM Rank
system.mem_ctrls_1.memoryStateTime::IDLE      2689250                       # Time in different power states
system.mem_ctrls_1.memoryStateTime::REF      49424000                       # Time in different power states
system.mem_ctrls_1.memoryStateTime::SREF  20613285000                       # Time in different power states
system.mem_ctrls_1.memoryStateTime::PRE_PDN     62587250                       # Time in different power states
system.mem_ctrls_1.memoryStateTime::ACT     316640971                       # Time in different power states
system.mem_ctrls_1.memoryStateTime::ACT_PDN   1021000029                       # Time in different power states
system.pwrStateResidencyTicks::UNDEFINED  22065626500                       # Cumulative time (in ticks) in various power states
system.cpu0.branchPred.lookups                2204743                       # Number of BP lookups
system.cpu0.branchPred.condPredicted          2204743                       # Number of conditional branches predicted
system.cpu0.branchPred.condIncorrect             8342                       # Number of conditional branches incorrect
system.cpu0.branchPred.BTBLookups             2183885                       # Number of BTB lookups
system.cpu0.branchPred.BTBHits                      0                       # Number of BTB hits
system.cpu0.branchPred.BTBCorrect                   0                       # Number of correct BTB predictions (this stat may not work properly.
system.cpu0.branchPred.BTBHitPct             0.000000                       # BTB Hit Percentage
system.cpu0.branchPred.usedRAS                   2355                       # Number of times the RAS was used to get a target.
system.cpu0.branchPred.RASInCorrect               491                       # Number of incorrect RAS predictions.
system.cpu0.branchPred.indirectLookups        2183885                       # Number of indirect predictor lookups.
system.cpu0.branchPred.indirectHits           1084671                       # Number of indirect target hits.
system.cpu0.branchPred.indirectMisses         1099214                       # Number of indirect misses.
system.cpu0.branchPredindirectMispredicted         4162                       # Number of mispredicted indirect branches.
system.cpu_voltage_domain.voltage                   1                       # Voltage in Volts
system.cpu0.clk_domain.clock                      500                       # Clock period in ticks
system.cpu0.dtb.walker.pwrStateResidencyTicks::UNDEFINED  22065626500                       # Cumulative time (in ticks) in various power states
system.cpu0.apic_clk_domain.clock                8000                       # Clock period in ticks
system.cpu0.interrupts.pwrStateResidencyTicks::UNDEFINED  22065626500                       # Cumulative time (in ticks) in various power states
system.cpu0.itb.walker.pwrStateResidencyTicks::UNDEFINED  22065626500                       # Cumulative time (in ticks) in various power states
system.cpu0.workload.num_syscalls                  42                       # Number of system calls
system.cpu0.pwrStateResidencyTicks::ON    22065626500                       # Cumulative time (in ticks) in various power states
system.cpu0.numCycles                         8149374                       # number of cpu cycles simulated
system.cpu0.numWorkItemsStarted                     0                       # number of work items this cpu started
system.cpu0.numWorkItemsCompleted                   0                       # number of work items this cpu completed
system.cpu0.fetch.icacheStallCycles           2192340                       # Number of cycles fetch is stalled on an Icache miss
system.cpu0.fetch.Insts                       6781553                       # Number of instructions fetch has processed
system.cpu0.fetch.Branches                    2204743                       # Number of branches that fetch encountered
system.cpu0.fetch.predictedBranches           1087026                       # Number of branches that fetch has predicted taken
system.cpu0.fetch.Cycles                      5855689                       # Number of cycles fetch has run and was not squashing or blocked
system.cpu0.fetch.SquashCycles                  16899                       # Number of cycles fetch has spent squashing
system.cpu0.fetch.MiscStallCycles                9925                       # Number of cycles fetch has spent waiting on interrupts, or bad addresses, or out of MSHRs
system.cpu0.fetch.NoActiveThreadStallCycles           10                       # Number of stall cycles due to no active thread to fetch from
system.cpu0.fetch.PendingTrapStallCycles          387                       # Number of stall cycles due to pending traps
system.cpu0.fetch.PendingQuiesceStallCycles           13                       # Number of stall cycles due to pending quiesce instructions
system.cpu0.fetch.IcacheWaitRetryStallCycles         6340                       # Number of stall cycles due to full MSHR
system.cpu0.fetch.CacheLines                  2163114                       # Number of cache lines fetched
system.cpu0.fetch.IcacheSquashes                 2614                       # Number of outstanding Icache misses that were squashed
system.cpu0.fetch.rateDist::samples           8073153                       # Number of instructions fetched each cycle (Total)
system.cpu0.fetch.rateDist::mean             1.671109                       # Number of instructions fetched each cycle (Total)
system.cpu0.fetch.rateDist::stdev            2.900068                       # Number of instructions fetched each cycle (Total)
system.cpu0.fetch.rateDist::underflows              0      0.00%      0.00% # Number of instructions fetched each cycle (Total)
system.cpu0.fetch.rateDist::0                 5833740     72.26%     72.26% # Number of instructions fetched each cycle (Total)
system.cpu0.fetch.rateDist::1                    8893      0.11%     72.37% # Number of instructions fetched each cycle (Total)
system.cpu0.fetch.rateDist::2                    3689      0.05%     72.42% # Number of instructions fetched each cycle (Total)
system.cpu0.fetch.rateDist::3                    9701      0.12%     72.54% # Number of instructions fetched each cycle (Total)
system.cpu0.fetch.rateDist::4                 1062064     13.16%     85.69% # Number of instructions fetched each cycle (Total)
system.cpu0.fetch.rateDist::5                    7957      0.10%     85.79% # Number of instructions fetched each cycle (Total)
system.cpu0.fetch.rateDist::6                    6579      0.08%     85.87% # Number of instructions fetched each cycle (Total)
system.cpu0.fetch.rateDist::7                    6009      0.07%     85.95% # Number of instructions fetched each cycle (Total)
system.cpu0.fetch.rateDist::8                 1134521     14.05%    100.00% # Number of instructions fetched each cycle (Total)
system.cpu0.fetch.rateDist::overflows               0      0.00%    100.00% # Number of instructions fetched each cycle (Total)
system.cpu0.fetch.rateDist::min_value               0                       # Number of instructions fetched each cycle (Total)
system.cpu0.fetch.rateDist::max_value               8                       # Number of instructions fetched each cycle (Total)
system.cpu0.fetch.rateDist::total             8073153                       # Number of instructions fetched each cycle (Total)
system.cpu0.fetch.branchRate                 0.270541                       # Number of branch fetches per cycle
system.cpu0.fetch.rate                       0.832156                       # Number of inst fetches per cycle
system.cpu0.decode.IdleCycles                  607832                       # Number of cycles decode is idle
system.cpu0.decode.BlockedCycles              5768830                       # Number of cycles decode is blocked
system.cpu0.decode.RunCycles                    89465                       # Number of cycles decode is running
system.cpu0.decode.UnblockCycles              1598567                       # Number of cycles decode is unblocking
system.cpu0.decode.SquashCycles                  8449                       # Number of cycles decode is squashing
system.cpu0.decode.DecodedInsts              13412932                       # Number of instructions handled by decode
system.cpu0.rename.SquashCycles                  8449                       # Number of cycles rename is squashing
system.cpu0.rename.IdleCycles                  789882                       # Number of cycles rename is idle
system.cpu0.rename.BlockCycles                3433539                       # Number of cycles rename is blocking
system.cpu0.rename.serializeStallCycles          3654                       # count of cycles rename stalled for serializing inst
system.cpu0.rename.RunCycles                   634691                       # Number of cycles rename is running
system.cpu0.rename.UnblockCycles              3202928                       # Number of cycles rename is unblocking
system.cpu0.rename.RenamedInsts              13373263                       # Number of instructions processed by rename
system.cpu0.rename.ROBFullEvents              2016323                       # Number of times rename has blocked due to ROB full
system.cpu0.rename.IQFullEvents                 16114                       # Number of times rename has blocked due to IQ full
system.cpu0.rename.LQFullEvents                789526                       # Number of times rename has blocked due to LQ full
system.cpu0.rename.SQFullEvents                 34524                       # Number of times rename has blocked due to SQ full
system.cpu0.rename.RenamedOperands           15663211                       # Number of destination operands rename has renamed
system.cpu0.rename.RenameLookups             28185330                       # Number of register rename lookups that rename has made
system.cpu0.rename.int_rename_lookups        13724202                       # Number of integer rename lookups
system.cpu0.rename.fp_rename_lookups            17015                       # Number of floating rename lookups
system.cpu0.rename.CommittedMaps             15177971                       # Number of HB maps that are committed
system.cpu0.rename.UndoneMaps                  485240                       # Number of HB maps that are undone due to squashing
system.cpu0.rename.serializingInsts                73                       # count of serializing insts renamed
system.cpu0.rename.tempSerializingInsts            76                       # count of temporary serializing insts renamed
system.cpu0.rename.skidInsts                 10511975                       # count of insts added to the skid buffer
system.cpu0.memDep0.insertedLoads             2203950                       # Number of loads inserted to the mem dependence unit.
system.cpu0.memDep0.insertedStores              23329                       # Number of stores inserted to the mem dependence unit.
system.cpu0.memDep0.conflictingLoads             8582                       # Number of conflicting loads.
system.cpu0.memDep0.conflictingStores            1845                       # Number of conflicting stores.
system.cpu0.iq.iqInstsAdded                  13301283                       # Number of instructions added to the IQ (excludes non-spec)
system.cpu0.iq.iqNonSpecInstsAdded                125                       # Number of non-speculative instructions added to the IQ
system.cpu0.iq.iqInstsIssued                 13307142                       # Number of instructions issued
system.cpu0.iq.iqSquashedInstsIssued             6401                       # Number of squashed instructions issued
system.cpu0.iq.iqSquashedInstsExamined         320989                       # Number of squashed instructions iterated over during squash; mainly for profiling
system.cpu0.iq.iqSquashedOperandsExamined       478529                       # Number of squashed operands that are examined and possibly removed from graph
system.cpu0.iq.iqSquashedNonSpecRemoved            83                       # Number of squashed non-spec instructions that were removed
system.cpu0.iq.issued_per_cycle::samples      8073153                       # Number of insts issued each cycle
system.cpu0.iq.issued_per_cycle::mean        1.648320                       # Number of insts issued each cycle
system.cpu0.iq.issued_per_cycle::stdev       1.386711                       # Number of insts issued each cycle
system.cpu0.iq.issued_per_cycle::underflows            0      0.00%      0.00% # Number of insts issued each cycle
system.cpu0.iq.issued_per_cycle::0            2017203     24.99%     24.99% # Number of insts issued each cycle
system.cpu0.iq.issued_per_cycle::1            2179132     26.99%     51.98% # Number of insts issued each cycle
system.cpu0.iq.issued_per_cycle::2            1580549     19.58%     71.56% # Number of insts issued each cycle
system.cpu0.iq.issued_per_cycle::3            1456927     18.05%     89.60% # Number of insts issued each cycle
system.cpu0.iq.issued_per_cycle::4             685812      8.49%     98.10% # Number of insts issued each cycle
system.cpu0.iq.issued_per_cycle::5             104319      1.29%     99.39% # Number of insts issued each cycle
system.cpu0.iq.issued_per_cycle::6              25345      0.31%     99.70% # Number of insts issued each cycle
system.cpu0.iq.issued_per_cycle::7              11710      0.15%     99.85% # Number of insts issued each cycle
system.cpu0.iq.issued_per_cycle::8              12156      0.15%    100.00% # Number of insts issued each cycle
system.cpu0.iq.issued_per_cycle::overflows            0      0.00%    100.00% # Number of insts issued each cycle
system.cpu0.iq.issued_per_cycle::min_value            0                       # Number of insts issued each cycle
system.cpu0.iq.issued_per_cycle::max_value            8                       # Number of insts issued each cycle
system.cpu0.iq.issued_per_cycle::total        8073153                       # Number of insts issued each cycle
system.cpu0.iq.fu_full::No_OpClass                  0      0.00%      0.00% # attempts to use FU when none available
system.cpu0.iq.fu_full::IntAlu                   5443     22.65%     22.65% # attempts to use FU when none available
system.cpu0.iq.fu_full::IntMult                     0      0.00%     22.65% # attempts to use FU when none available
system.cpu0.iq.fu_full::IntDiv                      0      0.00%     22.65% # attempts to use FU when none available
system.cpu0.iq.fu_full::FloatAdd                   41      0.17%     22.82% # attempts to use FU when none available
system.cpu0.iq.fu_full::FloatCmp                    0      0.00%     22.82% # attempts to use FU when none available
system.cpu0.iq.fu_full::FloatCvt                    0      0.00%     22.82% # attempts to use FU when none available
system.cpu0.iq.fu_full::FloatMult                   0      0.00%     22.82% # attempts to use FU when none available
system.cpu0.iq.fu_full::FloatMultAcc                0      0.00%     22.82% # attempts to use FU when none available
system.cpu0.iq.fu_full::FloatDiv                    0      0.00%     22.82% # attempts to use FU when none available
system.cpu0.iq.fu_full::FloatMisc                   0      0.00%     22.82% # attempts to use FU when none available
system.cpu0.iq.fu_full::FloatSqrt                   0      0.00%     22.82% # attempts to use FU when none available
system.cpu0.iq.fu_full::SimdAdd                     0      0.00%     22.82% # attempts to use FU when none available
system.cpu0.iq.fu_full::SimdAddAcc                  0      0.00%     22.82% # attempts to use FU when none available
system.cpu0.iq.fu_full::SimdAlu                     0      0.00%     22.82% # attempts to use FU when none available
system.cpu0.iq.fu_full::SimdCmp                     0      0.00%     22.82% # attempts to use FU when none available
system.cpu0.iq.fu_full::SimdCvt                     0      0.00%     22.82% # attempts to use FU when none available
system.cpu0.iq.fu_full::SimdMisc                    0      0.00%     22.82% # attempts to use FU when none available
system.cpu0.iq.fu_full::SimdMult                    0      0.00%     22.82% # attempts to use FU when none available
system.cpu0.iq.fu_full::SimdMultAcc                 0      0.00%     22.82% # attempts to use FU when none available
system.cpu0.iq.fu_full::SimdShift                   0      0.00%     22.82% # attempts to use FU when none available
system.cpu0.iq.fu_full::SimdShiftAcc                0      0.00%     22.82% # attempts to use FU when none available
system.cpu0.iq.fu_full::SimdSqrt                    0      0.00%     22.82% # attempts to use FU when none available
system.cpu0.iq.fu_full::SimdFloatAdd                0      0.00%     22.82% # attempts to use FU when none available
system.cpu0.iq.fu_full::SimdFloatAlu                0      0.00%     22.82% # attempts to use FU when none available
system.cpu0.iq.fu_full::SimdFloatCmp                0      0.00%     22.82% # attempts to use FU when none available
system.cpu0.iq.fu_full::SimdFloatCvt                0      0.00%     22.82% # attempts to use FU when none available
system.cpu0.iq.fu_full::SimdFloatDiv                0      0.00%     22.82% # attempts to use FU when none available
system.cpu0.iq.fu_full::SimdFloatMisc               0      0.00%     22.82% # attempts to use FU when none available
system.cpu0.iq.fu_full::SimdFloatMult               0      0.00%     22.82% # attempts to use FU when none available
system.cpu0.iq.fu_full::SimdFloatMultAcc            0      0.00%     22.82% # attempts to use FU when none available
system.cpu0.iq.fu_full::SimdFloatSqrt               0      0.00%     22.82% # attempts to use FU when none available
system.cpu0.iq.fu_full::MemRead                 17704     73.67%     96.50% # attempts to use FU when none available
system.cpu0.iq.fu_full::MemWrite                  727      3.03%     99.52% # attempts to use FU when none available
system.cpu0.iq.fu_full::FloatMemRead               74      0.31%     99.83% # attempts to use FU when none available
system.cpu0.iq.fu_full::FloatMemWrite              41      0.17%    100.00% # attempts to use FU when none available
system.cpu0.iq.fu_full::IprAccess                   0      0.00%    100.00% # attempts to use FU when none available
system.cpu0.iq.fu_full::InstPrefetch                0      0.00%    100.00% # attempts to use FU when none available
system.cpu0.iq.FU_type_0::No_OpClass             3937      0.03%      0.03% # Type of FU issued
system.cpu0.iq.FU_type_0::IntAlu             10970813     82.44%     82.47% # Type of FU issued
system.cpu0.iq.FU_type_0::IntMult                1901      0.01%     82.49% # Type of FU issued
system.cpu0.iq.FU_type_0::IntDiv                 1213      0.01%     82.50% # Type of FU issued
system.cpu0.iq.FU_type_0::FloatAdd               4085      0.03%     82.53% # Type of FU issued
system.cpu0.iq.FU_type_0::FloatCmp                  0      0.00%     82.53% # Type of FU issued
system.cpu0.iq.FU_type_0::FloatCvt                  0      0.00%     82.53% # Type of FU issued
system.cpu0.iq.FU_type_0::FloatMult                 0      0.00%     82.53% # Type of FU issued
system.cpu0.iq.FU_type_0::FloatMultAcc              0      0.00%     82.53% # Type of FU issued
system.cpu0.iq.FU_type_0::FloatDiv                  0      0.00%     82.53% # Type of FU issued
system.cpu0.iq.FU_type_0::FloatMisc                 0      0.00%     82.53% # Type of FU issued
system.cpu0.iq.FU_type_0::FloatSqrt                 0      0.00%     82.53% # Type of FU issued
system.cpu0.iq.FU_type_0::SimdAdd                   0      0.00%     82.53% # Type of FU issued
system.cpu0.iq.FU_type_0::SimdAddAcc                0      0.00%     82.53% # Type of FU issued
system.cpu0.iq.FU_type_0::SimdAlu                   0      0.00%     82.53% # Type of FU issued
system.cpu0.iq.FU_type_0::SimdCmp                   0      0.00%     82.53% # Type of FU issued
system.cpu0.iq.FU_type_0::SimdCvt                   0      0.00%     82.53% # Type of FU issued
system.cpu0.iq.FU_type_0::SimdMisc                  0      0.00%     82.53% # Type of FU issued
system.cpu0.iq.FU_type_0::SimdMult                  0      0.00%     82.53% # Type of FU issued
system.cpu0.iq.FU_type_0::SimdMultAcc               0      0.00%     82.53% # Type of FU issued
system.cpu0.iq.FU_type_0::SimdShift                 0      0.00%     82.53% # Type of FU issued
system.cpu0.iq.FU_type_0::SimdShiftAcc              0      0.00%     82.53% # Type of FU issued
system.cpu0.iq.FU_type_0::SimdSqrt                  0      0.00%     82.53% # Type of FU issued
system.cpu0.iq.FU_type_0::SimdFloatAdd              0      0.00%     82.53% # Type of FU issued
system.cpu0.iq.FU_type_0::SimdFloatAlu              0      0.00%     82.53% # Type of FU issued
system.cpu0.iq.FU_type_0::SimdFloatCmp              0      0.00%     82.53% # Type of FU issued
system.cpu0.iq.FU_type_0::SimdFloatCvt              0      0.00%     82.53% # Type of FU issued
system.cpu0.iq.FU_type_0::SimdFloatDiv              0      0.00%     82.53% # Type of FU issued
system.cpu0.iq.FU_type_0::SimdFloatMisc             0      0.00%     82.53% # Type of FU issued
system.cpu0.iq.FU_type_0::SimdFloatMult             0      0.00%     82.53% # Type of FU issued
system.cpu0.iq.FU_type_0::SimdFloatMultAcc            0      0.00%     82.53% # Type of FU issued
system.cpu0.iq.FU_type_0::SimdFloatSqrt             0      0.00%     82.53% # Type of FU issued
system.cpu0.iq.FU_type_0::MemRead             2302516     17.30%     99.83% # Type of FU issued
system.cpu0.iq.FU_type_0::MemWrite              18563      0.14%     99.97% # Type of FU issued
system.cpu0.iq.FU_type_0::FloatMemRead           3698      0.03%    100.00% # Type of FU issued
system.cpu0.iq.FU_type_0::FloatMemWrite           416      0.00%    100.00% # Type of FU issued
system.cpu0.iq.FU_type_0::IprAccess                 0      0.00%    100.00% # Type of FU issued
system.cpu0.iq.FU_type_0::InstPrefetch              0      0.00%    100.00% # Type of FU issued
system.cpu0.iq.FU_type_0::total              13307142                       # Type of FU issued
system.cpu0.iq.rate                          1.632904                       # Inst issue rate
system.cpu0.iq.fu_busy_cnt                      24030                       # FU busy when requested
system.cpu0.iq.fu_busy_rate                  0.001806                       # FU busy rate (busy events/executed inst)
system.cpu0.iq.int_inst_queue_reads          34700820                       # Number of integer instruction queue reads
system.cpu0.iq.int_inst_queue_writes         13607386                       # Number of integer instruction queue writes
system.cpu0.iq.int_inst_queue_wakeup_accesses     13157578                       # Number of integer instruction queue wakeup accesses
system.cpu0.iq.fp_inst_queue_reads              17048                       # Number of floating instruction queue reads
system.cpu0.iq.fp_inst_queue_writes             15114                       # Number of floating instruction queue writes
system.cpu0.iq.fp_inst_queue_wakeup_accesses         5894                       # Number of floating instruction queue wakeup accesses
system.cpu0.iq.int_alu_accesses              13318755                       # Number of integer alu accesses
system.cpu0.iq.fp_alu_accesses                   8480                       # Number of floating point alu accesses
system.cpu0.iew.lsq.thread0.forwLoads            8109                       # Number of loads that had data forwarded from stores
system.cpu0.iew.lsq.thread0.invAddrLoads            0                       # Number of loads ignored due to an invalid address
system.cpu0.iew.lsq.thread0.squashedLoads        44853                       # Number of loads squashed
system.cpu0.iew.lsq.thread0.ignoredResponses           25                       # Number of memory responses ignored because the instruction is squashed
system.cpu0.iew.lsq.thread0.memOrderViolation          109                       # Number of memory ordering violations
system.cpu0.iew.lsq.thread0.squashedStores         9719                       # Number of stores squashed
system.cpu0.iew.lsq.thread0.invAddrSwpfs            0                       # Number of software prefetches ignored due to an invalid address
system.cpu0.iew.lsq.thread0.blockedLoads            0                       # Number of blocked loads due to partial load-store forwarding
system.cpu0.iew.lsq.thread0.rescheduledLoads            6                       # Number of loads that were rescheduled
system.cpu0.iew.lsq.thread0.cacheBlocked       115005                       # Number of times an access to memory failed due to the cache being blocked
system.cpu0.iew.iewIdleCycles                       0                       # Number of cycles IEW is idle
system.cpu0.iew.iewSquashCycles                  8449                       # Number of cycles IEW is squashing
system.cpu0.iew.iewBlockCycles                 111043                       # Number of cycles IEW is blocking
system.cpu0.iew.iewUnblockCycles                 6317                       # Number of cycles IEW is unblocking
system.cpu0.iew.iewDispatchedInsts           13301408                       # Number of instructions dispatched to IQ
system.cpu0.iew.iewDispSquashedInsts             2150                       # Number of squashed instructions skipped by dispatch
system.cpu0.iew.iewDispLoadInsts              2203950                       # Number of dispatched load instructions
system.cpu0.iew.iewDispStoreInsts               23329                       # Number of dispatched store instructions
system.cpu0.iew.iewDispNonSpecInsts                85                       # Number of dispatched non-speculative instructions
system.cpu0.iew.iewIQFullEvents                   537                       # Number of times the IQ has become full, causing a stall
system.cpu0.iew.iewLSQFullEvents                 5410                       # Number of times the LSQ has become full, causing a stall
system.cpu0.iew.memOrderViolationEvents           109                       # Number of memory order violations
system.cpu0.iew.predictedTakenIncorrect          2065                       # Number of branches that were predicted taken incorrectly
system.cpu0.iew.predictedNotTakenIncorrect         8531                       # Number of branches that were predicted not taken incorrectly
system.cpu0.iew.branchMispredicts               10596                       # Number of branch mispredicts detected at execute
system.cpu0.iew.iewExecutedInsts             13287375                       # Number of executed instructions
system.cpu0.iew.iewExecLoadInsts              2300279                       # Number of load instructions executed
system.cpu0.iew.iewExecSquashedInsts            19767                       # Number of squashed instructions skipped in execute
system.cpu0.iew.exec_swp                            0                       # number of swp insts executed
system.cpu0.iew.exec_nop                            0                       # number of nop insts executed
system.cpu0.iew.exec_refs                     2318359                       # number of memory reference insts executed
system.cpu0.iew.exec_branches                 2156889                       # Number of branches executed
system.cpu0.iew.exec_stores                     18080                       # Number of stores executed
system.cpu0.iew.exec_rate                    1.630478                       # Inst execution rate
system.cpu0.iew.wb_sent                      13168155                       # cumulative count of insts sent to commit
system.cpu0.iew.wb_count                     13163472                       # cumulative count of insts written-back
system.cpu0.iew.wb_producers                  9770173                       # num instructions producing a value
system.cpu0.iew.wb_consumers                 13051657                       # num instructions consuming a value
system.cpu0.iew.wb_rate                      1.615274                       # insts written-back per cycle
system.cpu0.iew.wb_fanout                    0.748577                       # average fanout of values written-back
system.cpu0.commit.commitSquashedInsts         321064                       # The number of squashed insts skipped by commit
system.cpu0.commit.commitNonSpecStalls             42                       # The number of times commit has been forced to stall to communicate backwards
system.cpu0.commit.branchMispredicts             8360                       # The number of times a branch was mispredicted
system.cpu0.commit.committed_per_cycle::samples      8024527                       # Number of insts commited each cycle
system.cpu0.commit.committed_per_cycle::mean     1.617593                       # Number of insts commited each cycle
system.cpu0.commit.committed_per_cycle::stdev     2.706935                       # Number of insts commited each cycle
system.cpu0.commit.committed_per_cycle::underflows            0      0.00%      0.00% # Number of insts commited each cycle
system.cpu0.commit.committed_per_cycle::0      4770473     59.45%     59.45% # Number of insts commited each cycle
system.cpu0.commit.committed_per_cycle::1      1080535     13.47%     72.91% # Number of insts commited each cycle
system.cpu0.commit.committed_per_cycle::2        11670      0.15%     73.06% # Number of insts commited each cycle
system.cpu0.commit.committed_per_cycle::3      1071803     13.36%     86.42% # Number of insts commited each cycle
system.cpu0.commit.committed_per_cycle::4         9056      0.11%     86.53% # Number of insts commited each cycle
system.cpu0.commit.committed_per_cycle::5         6179      0.08%     86.61% # Number of insts commited each cycle
system.cpu0.commit.committed_per_cycle::6         1555      0.02%     86.63% # Number of insts commited each cycle
system.cpu0.commit.committed_per_cycle::7         1362      0.02%     86.64% # Number of insts commited each cycle
system.cpu0.commit.committed_per_cycle::8      1071894     13.36%    100.00% # Number of insts commited each cycle
system.cpu0.commit.committed_per_cycle::overflows            0      0.00%    100.00% # Number of insts commited each cycle
system.cpu0.commit.committed_per_cycle::min_value            0                       # Number of insts commited each cycle
system.cpu0.commit.committed_per_cycle::max_value            8                       # Number of insts commited each cycle
system.cpu0.commit.committed_per_cycle::total      8024527                       # Number of insts commited each cycle
system.cpu0.commit.committedInsts             6509185                       # Number of instructions committed
system.cpu0.commit.committedOps              12980419                       # Number of ops (including micro ops) committed
system.cpu0.commit.swp_count                        0                       # Number of s/w prefetches committed
system.cpu0.commit.refs                       2172707                       # Number of memory references committed
system.cpu0.commit.loads                      2159097                       # Number of loads committed
system.cpu0.commit.membars                          0                       # Number of memory barriers committed
system.cpu0.commit.branches                   2143896                       # Number of branches committed
system.cpu0.commit.fp_insts                      3624                       # Number of committed floating point instructions.
system.cpu0.commit.int_insts                 12976969                       # Number of committed integer instructions.
system.cpu0.commit.function_calls                 708                       # Number of function calls committed.
system.cpu0.commit.op_class_0::No_OpClass         1327      0.01%      0.01% # Class of committed instruction
system.cpu0.commit.op_class_0::IntAlu        10801031     83.21%     83.22% # Class of committed instruction
system.cpu0.commit.op_class_0::IntMult           1832      0.01%     83.23% # Class of committed instruction
system.cpu0.commit.op_class_0::IntDiv            1171      0.01%     83.24% # Class of committed instruction
system.cpu0.commit.op_class_0::FloatAdd          2351      0.02%     83.26% # Class of committed instruction
system.cpu0.commit.op_class_0::FloatCmp             0      0.00%     83.26% # Class of committed instruction
system.cpu0.commit.op_class_0::FloatCvt             0      0.00%     83.26% # Class of committed instruction
system.cpu0.commit.op_class_0::FloatMult            0      0.00%     83.26% # Class of committed instruction
system.cpu0.commit.op_class_0::FloatMultAcc            0      0.00%     83.26% # Class of committed instruction
system.cpu0.commit.op_class_0::FloatDiv             0      0.00%     83.26% # Class of committed instruction
system.cpu0.commit.op_class_0::FloatMisc            0      0.00%     83.26% # Class of committed instruction
system.cpu0.commit.op_class_0::FloatSqrt            0      0.00%     83.26% # Class of committed instruction
system.cpu0.commit.op_class_0::SimdAdd              0      0.00%     83.26% # Class of committed instruction
system.cpu0.commit.op_class_0::SimdAddAcc            0      0.00%     83.26% # Class of committed instruction
system.cpu0.commit.op_class_0::SimdAlu              0      0.00%     83.26% # Class of committed instruction
system.cpu0.commit.op_class_0::SimdCmp              0      0.00%     83.26% # Class of committed instruction
system.cpu0.commit.op_class_0::SimdCvt              0      0.00%     83.26% # Class of committed instruction
system.cpu0.commit.op_class_0::SimdMisc             0      0.00%     83.26% # Class of committed instruction
system.cpu0.commit.op_class_0::SimdMult             0      0.00%     83.26% # Class of committed instruction
system.cpu0.commit.op_class_0::SimdMultAcc            0      0.00%     83.26% # Class of committed instruction
system.cpu0.commit.op_class_0::SimdShift            0      0.00%     83.26% # Class of committed instruction
system.cpu0.commit.op_class_0::SimdShiftAcc            0      0.00%     83.26% # Class of committed instruction
system.cpu0.commit.op_class_0::SimdSqrt             0      0.00%     83.26% # Class of committed instruction
system.cpu0.commit.op_class_0::SimdFloatAdd            0      0.00%     83.26% # Class of committed instruction
system.cpu0.commit.op_class_0::SimdFloatAlu            0      0.00%     83.26% # Class of committed instruction
system.cpu0.commit.op_class_0::SimdFloatCmp            0      0.00%     83.26% # Class of committed instruction
system.cpu0.commit.op_class_0::SimdFloatCvt            0      0.00%     83.26% # Class of committed instruction
system.cpu0.commit.op_class_0::SimdFloatDiv            0      0.00%     83.26% # Class of committed instruction
system.cpu0.commit.op_class_0::SimdFloatMisc            0      0.00%     83.26% # Class of committed instruction
system.cpu0.commit.op_class_0::SimdFloatMult            0      0.00%     83.26% # Class of committed instruction
system.cpu0.commit.op_class_0::SimdFloatMultAcc            0      0.00%     83.26% # Class of committed instruction
system.cpu0.commit.op_class_0::SimdFloatSqrt            0      0.00%     83.26% # Class of committed instruction
system.cpu0.commit.op_class_0::MemRead        2158271     16.63%     99.89% # Class of committed instruction
system.cpu0.commit.op_class_0::MemWrite         13226      0.10%     99.99% # Class of committed instruction
system.cpu0.commit.op_class_0::FloatMemRead          826      0.01%    100.00% # Class of committed instruction
system.cpu0.commit.op_class_0::FloatMemWrite          384      0.00%    100.00% # Class of committed instruction
system.cpu0.commit.op_class_0::IprAccess            0      0.00%    100.00% # Class of committed instruction
system.cpu0.commit.op_class_0::InstPrefetch            0      0.00%    100.00% # Class of committed instruction
system.cpu0.commit.op_class_0::total         12980419                       # Class of committed instruction
system.cpu0.commit.bw_lim_events              1071894                       # number cycles where commit BW limit reached
system.cpu0.rob.rob_reads                    20254116                       # The number of ROB reads
system.cpu0.rob.rob_writes                   26652251                       # The number of ROB writes
system.cpu0.timesIdled                            782                       # Number of times that the entire CPU went into an idle state and unscheduled itself
system.cpu0.idleCycles                          76221                       # Total number of cycles that the CPU has spent unscheduled due to idling
system.cpu0.committedInsts                    6509185                       # Number of Instructions Simulated
system.cpu0.committedOps                     12980419                       # Number of Ops (including micro ops) Simulated
system.cpu0.cpi                              1.251981                       # CPI: Cycles Per Instruction
system.cpu0.cpi_total                        1.251981                       # CPI: Total CPI of All Threads
system.cpu0.ipc                              0.798734                       # IPC: Instructions Per Cycle
system.cpu0.ipc_total                        0.798734                       # IPC: Total IPC of All Threads
system.cpu0.int_regfile_reads                13593927                       # number of integer regfile reads
system.cpu0.int_regfile_writes               10986856                       # number of integer regfile writes
system.cpu0.fp_regfile_reads                     8827                       # number of floating regfile reads
system.cpu0.fp_regfile_writes                    5096                       # number of floating regfile writes
system.cpu0.cc_regfile_reads                  6575790                       # number of cc regfile reads
system.cpu0.cc_regfile_writes                 4400798                       # number of cc regfile writes
system.cpu0.misc_regfile_reads                7709367                       # number of misc regfile reads
system.cpu1.branchPred.lookups                6086499                       # Number of BP lookups
system.cpu1.branchPred.condPredicted          6086499                       # Number of conditional branches predicted
system.cpu1.branchPred.condIncorrect             8477                       # Number of conditional branches incorrect
system.cpu1.branchPred.BTBLookups             5600937                       # Number of BTB lookups
system.cpu1.branchPred.BTBHits                      0                       # Number of BTB hits
system.cpu1.branchPred.BTBCorrect                   0                       # Number of correct BTB predictions (this stat may not work properly.
system.cpu1.branchPred.BTBHitPct             0.000000                       # BTB Hit Percentage
system.cpu1.branchPred.usedRAS                 463393                       # Number of times the RAS was used to get a target.
system.cpu1.branchPred.RASInCorrect               494                       # Number of incorrect RAS predictions.
system.cpu1.branchPred.indirectLookups        5600937                       # Number of indirect predictor lookups.
system.cpu1.branchPred.indirectHits           3255668                       # Number of indirect target hits.
system.cpu1.branchPred.indirectMisses         2345269                       # Number of indirect misses.
system.cpu1.branchPredindirectMispredicted         4353                       # Number of mispredicted indirect branches.
system.cpu1.clk_domain.clock                      500                       # Clock period in ticks
system.cpu1.dtb.walker.pwrStateResidencyTicks::UNDEFINED  22065626500                       # Cumulative time (in ticks) in various power states
system.cpu1.apic_clk_domain.clock                8000                       # Clock period in ticks
system.cpu1.interrupts.pwrStateResidencyTicks::UNDEFINED  22065626500                       # Cumulative time (in ticks) in various power states
system.cpu1.itb.walker.pwrStateResidencyTicks::UNDEFINED  22065626500                       # Cumulative time (in ticks) in various power states
system.cpu1.workload.num_syscalls              461018                       # Number of system calls
system.cpu1.pwrStateResidencyTicks::ON    22065626500                       # Cumulative time (in ticks) in various power states
system.cpu1.numCycles                        44131254                       # number of cpu cycles simulated
system.cpu1.numWorkItemsStarted                     0                       # number of work items this cpu started
system.cpu1.numWorkItemsCompleted                   0                       # number of work items this cpu completed
system.cpu1.fetch.icacheStallCycles           3324094                       # Number of cycles fetch is stalled on an Icache miss
system.cpu1.fetch.Insts                      17252015                       # Number of instructions fetch has processed
system.cpu1.fetch.Branches                    6086499                       # Number of branches that fetch encountered
system.cpu1.fetch.predictedBranches           3719061                       # Number of branches that fetch has predicted taken
system.cpu1.fetch.Cycles                     40703440                       # Number of cycles fetch has run and was not squashing or blocked
system.cpu1.fetch.SquashCycles                  17271                       # Number of cycles fetch has spent squashing
system.cpu1.fetch.MiscStallCycles               10499                       # Number of cycles fetch has spent waiting on interrupts, or bad addresses, or out of MSHRs
system.cpu1.fetch.PendingTrapStallCycles          567                       # Number of stall cycles due to pending traps
system.cpu1.fetch.PendingQuiesceStallCycles           13                       # Number of stall cycles due to pending quiesce instructions
system.cpu1.fetch.IcacheWaitRetryStallCycles         6608                       # Number of stall cycles due to full MSHR
system.cpu1.fetch.CacheLines                  3295135                       # Number of cache lines fetched
system.cpu1.fetch.IcacheSquashes                 2612                       # Number of outstanding Icache misses that were squashed
system.cpu1.fetch.rateDist::samples          44053856                       # Number of instructions fetched each cycle (Total)
system.cpu1.fetch.rateDist::mean             0.778261                       # Number of instructions fetched each cycle (Total)
system.cpu1.fetch.rateDist::stdev            2.124762                       # Number of instructions fetched each cycle (Total)
system.cpu1.fetch.rateDist::underflows              0      0.00%      0.00% # Number of instructions fetched each cycle (Total)
system.cpu1.fetch.rateDist::0                37891523     86.01%     86.01% # Number of instructions fetched each cycle (Total)
system.cpu1.fetch.rateDist::1                  469533      1.07%     87.08% # Number of instructions fetched each cycle (Total)
system.cpu1.fetch.rateDist::2                  239099      0.54%     87.62% # Number of instructions fetched each cycle (Total)
system.cpu1.fetch.rateDist::3                  706819      1.60%     89.22% # Number of instructions fetched each cycle (Total)
system.cpu1.fetch.rateDist::4                 1156934      2.63%     91.85% # Number of instructions fetched each cycle (Total)
system.cpu1.fetch.rateDist::5                   11716      0.03%     91.88% # Number of instructions fetched each cycle (Total)
system.cpu1.fetch.rateDist::6                  697800      1.58%     93.46% # Number of instructions fetched each cycle (Total)
system.cpu1.fetch.rateDist::7                  699361      1.59%     95.05% # Number of instructions fetched each cycle (Total)
system.cpu1.fetch.rateDist::8                 2181071      4.95%    100.00% # Number of instructions fetched each cycle (Total)
system.cpu1.fetch.rateDist::overflows               0      0.00%    100.00% # Number of instructions fetched each cycle (Total)
system.cpu1.fetch.rateDist::min_value               0                       # Number of instructions fetched each cycle (Total)
system.cpu1.fetch.rateDist::max_value               8                       # Number of instructions fetched each cycle (Total)
system.cpu1.fetch.rateDist::total            44053856                       # Number of instructions fetched each cycle (Total)
system.cpu1.fetch.branchRate                 0.137918                       # Number of branch fetches per cycle
system.cpu1.fetch.rate                       0.390925                       # Number of inst fetches per cycle
system.cpu1.decode.IdleCycles                 1122146                       # Number of cycles decode is idle
system.cpu1.decode.BlockedCycles             38288495                       # Number of cycles decode is blocked
system.cpu1.decode.RunCycles                  2421033                       # Number of cycles decode is running
system.cpu1.decode.UnblockCycles              2213547                       # Number of cycles decode is unblocking
system.cpu1.decode.SquashCycles                  8635                       # Number of cycles decode is squashing
system.cpu1.decode.DecodedInsts              34203272                       # Number of instructions handled by decode
system.cpu1.rename.SquashCycles                  8635                       # Number of cycles rename is squashing
system.cpu1.rename.IdleCycles                 1763342                       # Number of cycles rename is idle
system.cpu1.rename.BlockCycles                3820802                       # Number of cycles rename is blocking
system.cpu1.rename.serializeStallCycles      31219497                       # count of cycles rename stalled for serializing inst
system.cpu1.rename.RunCycles                  3034318                       # Number of cycles rename is running
system.cpu1.rename.UnblockCycles              4207262                       # Number of cycles rename is unblocking
system.cpu1.rename.RenamedInsts              34162437                       # Number of instructions processed by rename
system.cpu1.rename.ROBFullEvents              2135148                       # Number of times rename has blocked due to ROB full
system.cpu1.rename.IQFullEvents                 42551                       # Number of times rename has blocked due to IQ full
system.cpu1.rename.LQFullEvents                820882                       # Number of times rename has blocked due to LQ full
system.cpu1.rename.SQFullEvents                101115                       # Number of times rename has blocked due to SQ full
system.cpu1.rename.RenamedOperands           36295319                       # Number of destination operands rename has renamed
system.cpu1.rename.RenameLookups             78747813                       # Number of register rename lookups that rename has made
system.cpu1.rename.int_rename_lookups        39183913                       # Number of integer rename lookups
system.cpu1.rename.fp_rename_lookups            17877                       # Number of floating rename lookups
system.cpu1.rename.CommittedMaps             35804111                       # Number of HB maps that are committed
system.cpu1.rename.UndoneMaps                  491208                       # Number of HB maps that are undone due to squashing
system.cpu1.rename.serializingInsts            461051                       # count of serializing insts renamed
system.cpu1.rename.tempSerializingInsts        461054                       # count of temporary serializing insts renamed
system.cpu1.rename.skidInsts                 14868546                       # count of insts added to the skid buffer
system.cpu1.memDep0.insertedLoads             4771438                       # Number of loads inserted to the mem dependence unit.
system.cpu1.memDep0.insertedStores             502282                       # Number of stores inserted to the mem dependence unit.
system.cpu1.memDep0.conflictingLoads            63109                       # Number of conflicting loads.
system.cpu1.memDep0.conflictingStores            9056                       # Number of conflicting stores.
system.cpu1.iq.iqInstsAdded                  33628134                       # Number of instructions added to the IQ (excludes non-spec)
system.cpu1.iq.iqNonSpecInstsAdded             461103                       # Number of non-speculative instructions added to the IQ
system.cpu1.iq.iqInstsIssued                 34118201                       # Number of instructions issued
system.cpu1.iq.iqSquashedInstsIssued             6507                       # Number of squashed instructions issued
system.cpu1.iq.iqSquashedInstsExamined         324935                       # Number of squashed instructions iterated over during squash; mainly for profiling
system.cpu1.iq.iqSquashedOperandsExamined       485270                       # Number of squashed operands that are examined and possibly removed from graph
system.cpu1.iq.iqSquashedNonSpecRemoved            85                       # Number of squashed non-spec instructions that were removed
system.cpu1.iq.issued_per_cycle::samples     44053856                       # Number of insts issued each cycle
system.cpu1.iq.issued_per_cycle::mean        0.774466                       # Number of insts issued each cycle
system.cpu1.iq.issued_per_cycle::stdev       1.618643                       # Number of insts issued each cycle
[...]
system.ruby.L1Cache_Controller.Transient_Local_GETS::total       104968                      
system.ruby.L1Cache_Controller.Transient_Local_GETS_Last_Token |           0      0.00%      0.00% |           1     25.00%     25.00% |           1     25.00%     50.00% |           2     50.00%    100.00% |           0      0.00%    100.00%
system.ruby.L1Cache_Controller.Transient_Local_GETS_Last_Token::total            4                      
system.ruby.L1Cache_Controller.Persistent_GETX |         327     22.58%     22.58% |         325     22.44%     45.03% |         293     20.23%     65.26% |         141      9.74%     75.00% |         362     25.00%    100.00%
system.ruby.L1Cache_Controller.Persistent_GETX::total         1448                      
system.ruby.L1Cache_Controller.Persistent_GETS |         494     19.27%     19.27% |         458     17.86%     37.13% |         490     19.11%     56.24% |         481     18.76%     75.00% |         641     25.00%    100.00%
system.ruby.L1Cache_Controller.Persistent_GETS::total         2564                      
system.ruby.L1Cache_Controller.Own_Lock_or_Unlock |        1185     19.69%     19.69% |        1223     20.32%     40.01% |        1223     20.32%     60.34% |        1384     23.00%     83.33% |        1003     16.67%    100.00%
system.ruby.L1Cache_Controller.Own_Lock_or_Unlock::total         6018                      
system.ruby.L1Cache_Controller.Request_Timeout |        1150     22.76%     22.76% |        1423     28.17%     50.93% |        1188     23.52%     74.45% |        1291     25.55%    100.00% |           0      0.00%    100.00%
system.ruby.L1Cache_Controller.Request_Timeout::total         5052                      
system.ruby.L1Cache_Controller.Use_TimeoutNoStarvers |        3754      9.12%      9.12% |        4541     11.03%     20.15% |        5903     14.34%     34.49% |       12636     30.70%     65.19% |       14331     34.81%    100.00%
system.ruby.L1Cache_Controller.Use_TimeoutNoStarvers::total        41165                      
system.ruby.L1Cache_Controller.NP.Load   |        2286     10.68%     10.68% |        2274     10.63%     21.31% |        2284     10.67%     31.99% |        2258     10.55%     42.54% |       12295     57.46%    100.00%
system.ruby.L1Cache_Controller.NP.Load::total        21397                      
system.ruby.L1Cache_Controller.NP.Ifetch |        1208     24.98%     24.98% |        1199     24.79%     49.77% |        1222     25.27%     75.04% |        1207     24.96%    100.00% |           0      0.00%    100.00%
system.ruby.L1Cache_Controller.NP.Ifetch::total         4836                      
system.ruby.L1Cache_Controller.NP.Store  |         648      2.52%      2.52% |        1440      5.60%      8.12% |        2803     10.90%     19.02% |        9548     37.13%     56.15% |       11274     43.85%    100.00%
system.ruby.L1Cache_Controller.NP.Store::total        25713                      
system.ruby.L1Cache_Controller.NP.Transient_Local_GETX |       25218     24.82%     24.82% |       24421     24.03%     48.85% |       22050     21.70%     70.55% |       15306     15.06%     85.61% |       14625     14.39%    100.00%
system.ruby.L1Cache_Controller.NP.Transient_Local_GETX::total       101620                      
system.ruby.L1Cache_Controller.NP.Transient_Local_GETS |       22632     22.21%     22.21% |       21866     21.46%     43.67% |       21713     21.31%     64.97% |       21756     21.35%     86.32% |       13938     13.68%    100.00%
system.ruby.L1Cache_Controller.NP.Transient_Local_GETS::total       101905                      
system.ruby.L1Cache_Controller.NP.Own_Lock_or_Unlock |         821     20.46%     20.46% |         783     19.52%     39.98% |         783     19.52%     59.50% |         622     15.50%     75.00% |        1003     25.00%    100.00%
system.ruby.L1Cache_Controller.NP.Own_Lock_or_Unlock::total         4012                      
system.ruby.L1Cache_Controller.I.Load    |           2     20.00%     20.00% |           1     10.00%     30.00% |           5     50.00%     80.00% |           2     20.00%    100.00% |           0      0.00%    100.00%
system.ruby.L1Cache_Controller.I.Load::total           10                      
system.ruby.L1Cache_Controller.I.Store   |           4     57.14%     57.14% |           3     42.86%    100.00% |           0      0.00%    100.00% |           0      0.00%    100.00% |           0      0.00%    100.00%
system.ruby.L1Cache_Controller.I.Store::total            7                      
system.ruby.L1Cache_Controller.I.L1_Replacement |          10      4.57%      4.57% |          48     21.92%     26.48% |          73     33.33%     59.82% |          71     32.42%     92.24% |          17      7.76%    100.00%
system.ruby.L1Cache_Controller.I.L1_Replacement::total          219                      
system.ruby.L1Cache_Controller.I.Transient_Local_GETX |           0      0.00%      0.00% |           0      0.00%      0.00% |        1018     50.00%     50.00% |        1018     50.00%    100.00% |           0      0.00%    100.00%
system.ruby.L1Cache_Controller.I.Transient_Local_GETX::total         2036                      
system.ruby.L1Cache_Controller.S.Load    |     1067033     11.90%     11.90% |     2773777     30.94%     42.85% |     2477726     27.64%     70.49% |     2506563     27.96%     98.45% |      138602      1.55%    100.00%
system.ruby.L1Cache_Controller.S.Load::total      8963701                      
system.ruby.L1Cache_Controller.S.Ifetch  |     1057372     15.78%     15.78% |     1845043     27.53%     43.30% |     3294012     49.14%     92.45% |      506268      7.55%    100.00% |           0      0.00%    100.00%
system.ruby.L1Cache_Controller.S.Ifetch::total      6702695                      
system.ruby.L1Cache_Controller.S.Store   |          49     24.62%     24.62% |          54     27.14%     51.76% |          47     23.62%     75.38% |          45     22.61%     97.99% |           4      2.01%    100.00%
system.ruby.L1Cache_Controller.S.Store::total          199                      
system.ruby.L1Cache_Controller.S.L1_Replacement |         240      2.32%      2.32% |         258      2.50%      4.82% |         306      2.96%      7.79% |         284      2.75%     10.54% |        9238     89.46%    100.00%
system.ruby.L1Cache_Controller.S.L1_Replacement::total        10326                      
system.ruby.L1Cache_Controller.S.Transient_Local_GETX |           0      0.00%      0.00% |           1     25.00%     25.00% |           1     25.00%     50.00% |           2     50.00%    100.00% |           0      0.00%    100.00%
system.ruby.L1Cache_Controller.S.Transient_Local_GETX::total            4                      
system.ruby.L1Cache_Controller.S.Transient_Local_GETS_Last_Token |           0      0.00%      0.00% |           1     25.00%     25.00% |           1     25.00%     50.00% |           2     50.00%    100.00% |           0      0.00%    100.00%
system.ruby.L1Cache_Controller.S.Transient_Local_GETS_Last_Token::total            4                      
system.ruby.L1Cache_Controller.M.Load    |       16699     15.47%     15.47% |       15226     14.10%     29.57% |       16492     15.28%     44.85% |       16837     15.59%     60.44% |       42711     39.56%    100.00%
system.ruby.L1Cache_Controller.M.Load::total       107965                      
system.ruby.L1Cache_Controller.M.Ifetch  |     1103938     25.05%     25.05% |     1448291     32.86%     57.90% |     1412163     32.04%     89.94% |      443403     10.06%    100.00% |           0      0.00%    100.00%
system.ruby.L1Cache_Controller.M.Ifetch::total      4407795                      
system.ruby.L1Cache_Controller.M.Store   |          45      3.75%      3.75% |          45      3.75%      7.51% |          47      3.92%     11.43% |          45      3.75%     15.18% |        1017     84.82%    100.00%
system.ruby.L1Cache_Controller.M.Store::total         1199                      
system.ruby.L1Cache_Controller.M.L1_Replacement |        1796     15.81%     15.81% |        2467     21.72%     37.53% |        2535     22.32%     59.85% |        2525     22.23%     82.08% |        2036     17.92%    100.00%
system.ruby.L1Cache_Controller.M.L1_Replacement::total        11359                      
system.ruby.L1Cache_Controller.M.Own_Lock_or_Unlock |         146     22.88%     22.88% |         182     28.53%     51.41% |         151     23.67%     75.08% |         159     24.92%    100.00% |           0      0.00%    100.00%
system.ruby.L1Cache_Controller.M.Own_Lock_or_Unlock::total          638                      
system.ruby.L1Cache_Controller.MM.Load   |       22263      1.37%      1.37% |      527086     32.39%     33.76% |      470569     28.92%     62.67% |      607434     37.33%    100.00% |           0      0.00%    100.00%
system.ruby.L1Cache_Controller.MM.Load::total      1627352                      
system.ruby.L1Cache_Controller.MM.Store  |       10678      0.79%      0.79% |      488037     36.16%     36.95% |      384252     28.47%     65.43% |      293492     21.75%     87.17% |      173097     12.83%    100.00%
system.ruby.L1Cache_Controller.MM.Store::total      1349556                      
system.ruby.L1Cache_Controller.MM.L1_Replacement |         568      2.48%      2.48% |         613      2.68%      5.16% |        1867      8.15%     13.31% |        8606     37.57%     50.87% |       11254     49.13%    100.00%
system.ruby.L1Cache_Controller.MM.L1_Replacement::total        22908                      
system.ruby.L1Cache_Controller.MM.Transient_Local_GETX |           0      0.00%      0.00% |           0      0.00%      0.00% |           0      0.00%      0.00% |           0      0.00%      0.00% |          16    100.00%    100.00%
system.ruby.L1Cache_Controller.MM.Transient_Local_GETX::total           16                      
system.ruby.L1Cache_Controller.MM.Transient_Local_GETS |         115      3.75%      3.75% |         902     29.45%     33.20% |        1018     33.24%     66.44% |        1018     33.24%     99.67% |          10      0.33%    100.00%
system.ruby.L1Cache_Controller.MM.Transient_Local_GETS::total         3063                      
system.ruby.L1Cache_Controller.MM.Own_Lock_or_Unlock |          36      9.86%      9.86% |          38     10.41%     20.27% |          69     18.90%     39.18% |         222     60.82%    100.00% |           0      0.00%    100.00%
system.ruby.L1Cache_Controller.MM.Own_Lock_or_Unlock::total          365                      
system.ruby.L1Cache_Controller.M_W.Load  |       11159     23.39%     23.39% |       11102     23.27%     46.66% |       11214     23.51%     70.17% |       11169     23.41%     93.58% |        3062      6.42%    100.00%
system.ruby.L1Cache_Controller.M_W.Load::total        47706                      
system.ruby.L1Cache_Controller.M_W.Ifetch |         425     25.30%     25.30% |         430     25.60%     50.89% |         422     25.12%     76.01% |         403     23.99%    100.00% |           0      0.00%    100.00%
system.ruby.L1Cache_Controller.M_W.Ifetch::total         1680                      
system.ruby.L1Cache_Controller.M_W.Store |          11     22.00%     22.00% |          12     24.00%     46.00% |          14     28.00%     74.00% |          13     26.00%    100.00% |           0      0.00%    100.00%
system.ruby.L1Cache_Controller.M_W.Store::total           50                      
system.ruby.L1Cache_Controller.M_W.Own_Lock_or_Unlock |          18     19.35%     19.35% |          26     27.96%     47.31% |          28     30.11%     77.42% |          21     22.58%    100.00% |           0      0.00%    100.00%
system.ruby.L1Cache_Controller.M_W.Own_Lock_or_Unlock::total           93                      
system.ruby.L1Cache_Controller.M_W.Use_TimeoutNoStarvers |        3042     20.02%     20.02% |        3032     19.95%     39.97% |        3039     20.00%     59.97% |        3030     19.94%     79.91% |        3053     20.09%    100.00%
system.ruby.L1Cache_Controller.M_W.Use_TimeoutNoStarvers::total        15196                      
system.ruby.L1Cache_Controller.MM_W.Load |          39     22.67%     22.67% |          37     21.51%     44.19% |          47     27.33%     71.51% |          49     28.49%    100.00% |           0      0.00%    100.00%
system.ruby.L1Cache_Controller.MM_W.Load::total          172                      
system.ruby.L1Cache_Controller.MM_W.Store |        2631      6.41%      6.41% |        3752      9.15%     15.56% |        6043     14.73%     30.29% |       17313     42.21%     72.50% |       11278     27.50%    100.00%
system.ruby.L1Cache_Controller.MM_W.Store::total        41017                      
system.ruby.L1Cache_Controller.MM_W.Own_Lock_or_Unlock |           5     15.62%     15.62% |           3      9.38%     25.00% |           6     18.75%     43.75% |          18     56.25%    100.00% |           0      0.00%    100.00%
system.ruby.L1Cache_Controller.MM_W.Own_Lock_or_Unlock::total           32                      
system.ruby.L1Cache_Controller.MM_W.Use_TimeoutNoStarvers |         712      2.74%      2.74% |        1509      5.81%      8.55% |        2864     11.03%     19.58% |        9606     36.99%     56.57% |       11278     43.43%    100.00%
system.ruby.L1Cache_Controller.MM_W.Use_TimeoutNoStarvers::total        25969                      
system.ruby.L1Cache_Controller.IM.Data_All_Tokens |         652      2.53%      2.53% |        1443      5.61%      8.15% |        2803     10.90%     19.04% |        9548     37.12%     56.17% |       11274     43.83%    100.00%
system.ruby.L1Cache_Controller.IM.Data_All_Tokens::total        25720                      
system.ruby.L1Cache_Controller.IM.Ack    |           0      0.00%      0.00% |           0      0.00%      0.00% |           0      0.00%      0.00% |           0      0.00%      0.00% |           3    100.00%    100.00%
system.ruby.L1Cache_Controller.IM.Ack::total            3                      
system.ruby.L1Cache_Controller.IM.Own_Lock_or_Unlock |          30      9.09%      9.09% |          34     10.30%     19.39% |          63     19.09%     38.48% |         203     61.52%    100.00% |           0      0.00%    100.00%
system.ruby.L1Cache_Controller.IM.Own_Lock_or_Unlock::total          330                      
system.ruby.L1Cache_Controller.IM.Request_Timeout |         232     30.73%     30.73% |          56      7.42%     38.15% |         189     25.03%     63.18% |         278     36.82%    100.00% |           0      0.00%    100.00%
system.ruby.L1Cache_Controller.IM.Request_Timeout::total          755                      
system.ruby.L1Cache_Controller.SM.Data_All_Tokens |          49     24.62%     24.62% |          54     27.14%     51.76% |          47     23.62%     75.38% |          45     22.61%     97.99% |           4      2.01%    100.00%
system.ruby.L1Cache_Controller.SM.Data_All_Tokens::total          199                      
system.ruby.L1Cache_Controller.SM.Ack    |           0      0.00%      0.00% |           0      0.00%      0.00% |           0      0.00%      0.00% |           0      0.00%      0.00% |           1    100.00%    100.00%
system.ruby.L1Cache_Controller.SM.Ack::total            1                      
system.ruby.L1Cache_Controller.IS.L1_Replacement |           0      0.00%      0.00% |           0      0.00%      0.00% |           6    100.00%    100.00% |           0      0.00%    100.00% |           0      0.00%    100.00%
system.ruby.L1Cache_Controller.IS.L1_Replacement::total            6                      
system.ruby.L1Cache_Controller.IS.Data_Shared |         443      4.03%      4.03% |         429      3.90%      7.93% |         458      4.17%     12.10% |         424      3.86%     15.95% |        9242     84.05%    100.00%
system.ruby.L1Cache_Controller.IS.Data_Shared::total        10996                      
system.ruby.L1Cache_Controller.IS.Data_All_Tokens |        3053     20.02%     20.02% |        3045     19.97%     39.99% |        3053     20.02%     60.02% |        3043     19.96%     79.98% |        3053     20.02%    100.00%
system.ruby.L1Cache_Controller.IS.Data_All_Tokens::total        15247                      
system.ruby.L1Cache_Controller.IS.Own_Lock_or_Unlock |         129     23.54%     23.54% |         157     28.65%     52.19% |         123     22.45%     74.64% |         139     25.36%    100.00% |           0      0.00%    100.00%
system.ruby.L1Cache_Controller.IS.Own_Lock_or_Unlock::total          548                      
system.ruby.L1Cache_Controller.IS.Request_Timeout |         918     21.36%     21.36% |        1367     31.81%     53.18% |         999     23.25%     76.43% |        1013     23.57%    100.00% |           0      0.00%    100.00%
system.ruby.L1Cache_Controller.IS.Request_Timeout::total         4297                      
system.ruby.L1Cache_Controller.I_L.Persistent_GETX |         327     22.58%     22.58% |         325     22.44%     45.03% |         293     20.23%     65.26% |         141      9.74%     75.00% |         362     25.00%    100.00%
system.ruby.L1Cache_Controller.I_L.Persistent_GETX::total         1448                      
system.ruby.L1Cache_Controller.I_L.Persistent_GETS |         494     19.27%     19.27% |         458     17.86%     37.13% |         490     19.11%     56.24% |         481     18.76%     75.00% |         641     25.00%    100.00%
system.ruby.L1Cache_Controller.I_L.Persistent_GETS::total         2564                      
system.ruby.L2Cache_Controller.L1_GETS          26243      0.00%      0.00%
system.ruby.L2Cache_Controller.L1_GETX          25919      0.00%      0.00%
system.ruby.L2Cache_Controller.L1_INV            3083      0.00%      0.00%
system.ruby.L2Cache_Controller.L2_Replacement           90      0.00%      0.00%
system.ruby.L2Cache_Controller.Writeback_Shared_Data            4      0.00%      0.00%
system.ruby.L2Cache_Controller.Writeback_All_Tokens        44589      0.00%      0.00%
system.ruby.L2Cache_Controller.Persistent_GETX          362      0.00%      0.00%
system.ruby.L2Cache_Controller.Persistent_GETS          641      0.00%      0.00%
system.ruby.L2Cache_Controller.Own_Lock_or_Unlock         1003      0.00%      0.00%
system.ruby.L2Cache_Controller.NP.L1_GETS        15083      0.00%      0.00%
system.ruby.L2Cache_Controller.NP.L1_GETX        14129      0.00%      0.00%
system.ruby.L2Cache_Controller.NP.L1_INV         2899      0.00%      0.00%
system.ruby.L2Cache_Controller.NP.Writeback_Shared_Data            1      0.00%      0.00%
system.ruby.L2Cache_Controller.NP.Writeback_All_Tokens        22786      0.00%      0.00%
system.ruby.L2Cache_Controller.NP.Own_Lock_or_Unlock         1003      0.00%      0.00%
system.ruby.L2Cache_Controller.I.L1_GETS          164      0.00%      0.00%
system.ruby.L2Cache_Controller.I.L1_GETX           16      0.00%      0.00%
system.ruby.L2Cache_Controller.I.L1_INV           184      0.00%      0.00%
system.ruby.L2Cache_Controller.I.Writeback_All_Tokens        11481      0.00%      0.00%
system.ruby.L2Cache_Controller.O.L1_GETS            4      0.00%      0.00%
system.ruby.L2Cache_Controller.O.L1_GETX          202      0.00%      0.00%
system.ruby.L2Cache_Controller.O.L2_Replacement            2      0.00%      0.00%
system.ruby.L2Cache_Controller.O.Writeback_Shared_Data            3      0.00%      0.00%
system.ruby.L2Cache_Controller.O.Writeback_All_Tokens        10322      0.00%      0.00%
system.ruby.L2Cache_Controller.M.L1_GETS        10992      0.00%      0.00%
system.ruby.L2Cache_Controller.M.L1_GETX        11572      0.00%      0.00%
system.ruby.L2Cache_Controller.M.L2_Replacement           88      0.00%      0.00%
system.ruby.L2Cache_Controller.I_L.Persistent_GETX          362      0.00%      0.00%
system.ruby.L2Cache_Controller.I_L.Persistent_GETS          641      0.00%      0.00%

---------- End Simulation Statistics   ----------
