
---------- Begin Simulation Statistics ----------
sim_seconds                                  0.022074                       # Number of seconds simulated
sim_ticks                                 22074021000                       # Number of ticks simulated
final_tick                                22074021000                       # Number of ticks from beginning of simulation (restored from checkpoints and never reset)
sim_freq                                 1000000000000                       # Frequency of simulated ticks
host_inst_rate                                  49205                       # Simulator instruction rate (inst/s)
host_op_rate                                    96664                       # Simulator op (including micro ops) rate (op/s)
host_tick_rate                               18748004                       # Simulator tick rate (ticks/s)
host_mem_usage                                 850424                       # Number of bytes of host memory used
host_seconds                                  1177.41                       # Real time elapsed on the host
sim_insts                                    57934663                       # Number of instructions simulated
sim_ops                                     113813361                       # Number of ops (including micro ops) simulated
system.voltage_domain.voltage                       1                       # Voltage in Volts
system.clk_domain.clock                          1000                       # Clock period in ticks
system.mem_ctrls.pwrStateResidencyTicks::UNDEFINED  22074021000                       # Cumulative time (in ticks) in various power states
system.mem_ctrls.bytes_read::ruby.dir_cntrl0      1683520                       # Number of bytes read from this memory
system.mem_ctrls.bytes_read::total            1683520                       # Number of bytes read from this memory
system.mem_ctrls.bytes_written::ruby.dir_cntrl0          832                       # Number of bytes written to this memory
system.mem_ctrls.bytes_written::total             832                       # Number of bytes written to this memory
system.mem_ctrls.num_reads::ruby.dir_cntrl0        26305                       # Number of read requests responded to by this memory
system.mem_ctrls.num_reads::total               26305                       # Number of read requests responded to by this memory
system.mem_ctrls.num_writes::ruby.dir_cntrl0           13                       # Number of write requests responded to by this memory
system.mem_ctrls.num_writes::total                 13                       # Number of write requests responded to by this memory
system.mem_ctrls.bw_read::ruby.dir_cntrl0     76267029                       # Total read bandwidth from this memory (bytes/s)
system.mem_ctrls.bw_read::total              76267029                       # Total read bandwidth from this memory (bytes/s)
system.mem_ctrls.bw_write::ruby.dir_cntrl0        37691                       # Write bandwidth from this memory (bytes/s)
system.mem_ctrls.bw_write::total                37691                       # Write bandwidth from this memory (bytes/s)
system.mem_ctrls.bw_total::ruby.dir_cntrl0     76304720                       # Total bandwidth to/from this memory (bytes/s)
system.mem_ctrls.bw_total::total             76304720                       # Total bandwidth to/from this memory (bytes/s)
system.mem_ctrls.readReqs                       26305                       # Number of read requests accepted
system.mem_ctrls.avgNetLat                       0.00                       # Average network latency to DRAM controller
system.mem_ctrls.writeReqs                         13                       # Number of write requests accepted
system.mem_ctrls.readBursts                     26305                       # Number of DRAM read bursts, including those serviced by the write queue
system.mem_ctrls.writeBursts                       13                       # Number of DRAM write bursts, including those merged in the write queue
system.mem_ctrls.bytesReadDRAM                1683136                       # Total number of bytes read from DRAM
system.mem_ctrls.bytesReadWrQ                     384                       # Total number of bytes read from write queue
system.mem_ctrls.bytesWritten                       0                       # Total number of bytes written to DRAM
system.mem_ctrls.bytesReadSys                 1683520                       # Total read bytes from the system interface side
system.mem_ctrls.bytesWrittenSys                  832                       # Total written bytes from the system interface side
system.mem_ctrls.servicedByWrQ                      6                       # Number of DRAM read bursts serviced by the write queue
system.mem_ctrls.mergedWrBursts                     0                       # Number of DRAM write bursts merged with an existing one
system.mem_ctrls.neitherReadNorWriteReqs            0                       # Number of requests that are neither read nor write
system.mem_ctrls.perBankRdBursts::0              1635                       # Per bank write bursts
system.mem_ctrls.perBankRdBursts::1              1609                       # Per bank write bursts
system.mem_ctrls.perBankRdBursts::2              1521                       # Per bank write bursts
system.mem_ctrls.perBankRdBursts::3              1389                       # Per bank write bursts
system.mem_ctrls.perBankRdBursts::4              1430                       # Per bank write bursts
system.mem_ctrls.perBankRdBursts::5              1841                       # Per bank write bursts
system.mem_ctrls.perBankRdBursts::6              1934                       # Per bank write bursts
system.mem_ctrls.perBankRdBursts::7              1721                       # Per bank write bursts
system.mem_ctrls.perBankRdBursts::8              1631                       # Per bank write bursts
system.mem_ctrls.perBankRdBursts::9              1542                       # Per bank write bursts
system.mem_ctrls.perBankRdBursts::10             1512                       # Per bank write bursts
system.mem_ctrls.perBankRdBursts::11             1648                       # Per bank write bursts
system.mem_ctrls.perBankRdBursts::12             1779                       # Per bank write bursts
system.mem_ctrls.perBankRdBursts::13             1739                       # Per bank write bursts
system.mem_ctrls.perBankRdBursts::14             1692                       # Per bank write bursts
system.mem_ctrls.perBankRdBursts::15             1676                       # Per bank write bursts
system.mem_ctrls.perBankWrBursts::0                 0                       # Per bank write bursts
system.mem_ctrls.perBankWrBursts::1                 0                       # Per bank write bursts
system.mem_ctrls.perBankWrBursts::2                 0                       # Per bank write bursts
system.mem_ctrls.perBankWrBursts::3                 0                       # Per bank write bursts
system.mem_ctrls.perBankWrBursts::4                 0                       # Per bank write bursts
system.mem_ctrls.perBankWrBursts::5                 0                       # Per bank write bursts
system.mem_ctrls.perBankWrBursts::6                 0                       # Per bank write bursts
system.mem_ctrls.perBankWrBursts::7                 0                       # Per bank write bursts
system.mem_ctrls.perBankWrBursts::8                 0                       # Per bank write bursts
system.mem_ctrls.perBankWrBursts::9                 0                       # Per bank write bursts
system.mem_ctrls.perBankWrBursts::10                0                       # Per bank write bursts
system.mem_ctrls.perBankWrBursts::11                0                       # Per bank write bursts
system.mem_ctrls.perBankWrBursts::12                0                       # Per bank write bursts
system.mem_ctrls.perBankWrBursts::13                0                       # Per bank write bursts
system.mem_ctrls.perBankWrBursts::14                0                       # Per bank write bursts
system.mem_ctrls.perBankWrBursts::15                0                       # Per bank write bursts
system.mem_ctrls.numRdRetry                         0                       # Number of times read queue was full causing retry
system.mem_ctrls.numWrRetry                         0                       # Number of times write queue was full causing retry
system.mem_ctrls.totGap                   22073955500                       # Total gap between requests
system.mem_ctrls.readPktSize::0                     0                       # Read request sizes (log2)
system.mem_ctrls.readPktSize::1                     0                       # Read request sizes (log2)
system.mem_ctrls.readPktSize::2                     0                       # Read request sizes (log2)
system.mem_ctrls.readPktSize::3                     0                       # Read request sizes (log2)
system.mem_ctrls.readPktSize::4                     0                       # Read request sizes (log2)
system.mem_ctrls.readPktSize::5                     0                       # Read request sizes (log2)
system.mem_ctrls.readPktSize::6                 26305                       # Read request sizes (log2)
system.mem_ctrls.writePktSize::0                    0                       # Write request sizes (log2)
system.mem_ctrls.writePktSize::1                    0                       # Write request sizes (log2)
system.mem_ctrls.writePktSize::2                    0                       # Write request sizes (log2)
system.mem_ctrls.writePktSize::3                    0                       # Write request sizes (log2)
system.mem_ctrls.writePktSize::4                    0                       # Write request sizes (log2)
system.mem_ctrls.writePktSize::5                    0                       # Write request sizes (log2)
system.mem_ctrls.writePktSize::6                   13                       # Write request sizes (log2)
system.mem_ctrls.rdQLenPdf::0                   13971                       # What read queue length does an incoming req see
system.mem_ctrls.rdQLenPdf::1                    2791                       # What read queue length does an incoming req see
system.mem_ctrls.rdQLenPdf::2                    2589                       # What read queue length does an incoming req see
system.mem_ctrls.rdQLenPdf::3                    1851                       # What read queue length does an incoming req see
system.mem_ctrls.rdQLenPdf::4                    1253                       # What read queue length does an incoming req see
system.mem_ctrls.rdQLenPdf::5                     983                       # What read queue length does an incoming req see
system.mem_ctrls.rdQLenPdf::6                     842                       # What read queue length does an incoming req see
system.mem_ctrls.rdQLenPdf::7                     743                       # What read queue length does an incoming req see
system.mem_ctrls.rdQLenPdf::8                     542                       # What read queue length does an incoming req see
system.mem_ctrls.rdQLenPdf::9                     336                       # What read queue length does an incoming req see
system.mem_ctrls.rdQLenPdf::10                    225                       # What read queue length does an incoming req see
system.mem_ctrls.rdQLenPdf::11                     97                       # What read queue length does an incoming req see
system.mem_ctrls.rdQLenPdf::12                     45                       # What read queue length does an incoming req see
system.mem_ctrls.rdQLenPdf::13                     19                       # What read queue length does an incoming req see
system.mem_ctrls.rdQLenPdf::14                      6                       # What read queue length does an incoming req see
system.mem_ctrls.rdQLenPdf::15                      4                       # What read queue length does an incoming req see
system.mem_ctrls.rdQLenPdf::16                      2                       # What read queue length does an incoming req see
system.mem_ctrls.rdQLenPdf::17                      0                       # What read queue length does an incoming req see
system.mem_ctrls.rdQLenPdf::18                      0                       # What read queue length does an incoming req see
system.mem_ctrls.rdQLenPdf::19                      0                       # What read queue length does an incoming req see
system.mem_ctrls.rdQLenPdf::20                      0                       # What read queue length does an incoming req see
system.mem_ctrls.rdQLenPdf::21                      0                       # What read queue length does an incoming req see
system.mem_ctrls.rdQLenPdf::22                      0                       # What read queue length does an incoming req see
system.mem_ctrls.rdQLenPdf::23                      0                       # What read queue length does an incoming req see
system.mem_ctrls.rdQLenPdf::24                      0                       # What read queue length does an incoming req see
system.mem_ctrls.rdQLenPdf::25                      0                       # What read queue length does an incoming req see
system.mem_ctrls.rdQLenPdf::26                      0                       # What read queue length does an incoming req see
system.mem_ctrls.rdQLenPdf::27                      0                       # What read queue length does an incoming req see
system.mem_ctrls.rdQLenPdf::28                      0                       # What read queue length does an incoming req see
system.mem_ctrls.rdQLenPdf::29                      0                       # What read queue length does an incoming req see
system.mem_ctrls.rdQLenPdf::30                      0                       # What read queue length does an incoming req see
system.mem_ctrls.rdQLenPdf::31                      0                       # What read queue length does an incoming req see
system.mem_ctrls.wrQLenPdf::0                       1                       # What write queue length does an incoming req see
system.mem_ctrls.wrQLenPdf::1                       1                       # What write queue length does an incoming req see
system.mem_ctrls.wrQLenPdf::2                       1                       # What write queue length does an incoming req see
system.mem_ctrls.wrQLenPdf::3                       1                       # What write queue length does an incoming req see
system.mem_ctrls.wrQLenPdf::4                       1                       # What write queue length does an incoming req see
system.mem_ctrls.wrQLenPdf::5                       1                       # What write queue length does an incoming req see
system.mem_ctrls.wrQLenPdf::6                       1                       # What write queue length does an incoming req see
system.mem_ctrls.wrQLenPdf::7                       1                       # What write queue length does an incoming req see
system.mem_ctrls.wrQLenPdf::8                       1                       # What write queue length does an incoming req see
system.mem_ctrls.wrQLenPdf::9                       1                       # What write queue length does an incoming req see
system.mem_ctrls.wrQLenPdf::10                      1                       # What write queue length does an incoming req see
system.mem_ctrls.wrQLenPdf::11                      1                       # What write queue length does an incoming req see
system.mem_ctrls.wrQLenPdf::12                      1                       # What write queue length does an incoming req see
system.mem_ctrls.wrQLenPdf::13                      0                       # What write queue length does an incoming req see
system.mem_ctrls.wrQLenPdf::14                      0                       # What write queue length does an incoming req see
system.mem_ctrls.wrQLenPdf::15                      0                       # What write queue length does an incoming req see
system.mem_ctrls.wrQLenPdf::16                      0                       # What write queue length does an incoming req see
system.mem_ctrls.wrQLenPdf::17                      0                       # What write queue length does an incoming req see
system.mem_ctrls.wrQLenPdf::18                      0                       # What write queue length does an incoming req see
system.mem_ctrls.wrQLenPdf::19                      0                       # What write queue length does an incoming req see
system.mem_ctrls.wrQLenPdf::20                      0                       # What write queue length does an incoming req see
system.mem_ctrls.wrQLenPdf::21                      0                       # What write queue length does an incoming req see
system.mem_ctrls.wrQLenPdf::22                      0                       # What write queue length does an incoming req see
system.mem_ctrls.wrQLenPdf::23                      0                       # What write queue length does an incoming req see
system.mem_ctrls.wrQLenPdf::24                      0                       # What write queue length does an incoming req see
system.mem_ctrls.wrQLenPdf::25                      0                       # What write queue length does an incoming req see
system.mem_ctrls.wrQLenPdf::26                      0                       # What write queue length does an incoming req see
system.mem_ctrls.wrQLenPdf::27                      0                       # What write queue length does an incoming req see
system.mem_ctrls.wrQLenPdf::28                      0                       # What write queue length does an incoming req see
system.mem_ctrls.wrQLenPdf::29                      0                       # What write queue length does an incoming req see
system.mem_ctrls.wrQLenPdf::30                      0                       # What write queue length does an incoming req see
system.mem_ctrls.wrQLenPdf::31                      0                       # What write queue length does an incoming req see
system.mem_ctrls.wrQLenPdf::32                      0                       # What write queue length does an incoming req see
system.mem_ctrls.wrQLenPdf::33                      0                       # What write queue length does an incoming req see
system.mem_ctrls.wrQLenPdf::34                      0                       # What write queue length does an incoming req see
system.mem_ctrls.wrQLenPdf::35                      0                       # What write queue length does an incoming req see
system.mem_ctrls.wrQLenPdf::36                      0                       # What write queue length does an incoming req see
system.mem_ctrls.wrQLenPdf::37                      0                       # What write queue length does an incoming req see
system.mem_ctrls.wrQLenPdf::38                      0                       # What write queue length does an incoming req see
system.mem_ctrls.wrQLenPdf::39                      0                       # What write queue length does an incoming req see
system.mem_ctrls.wrQLenPdf::40                      0                       # What write queue length does an incoming req see
system.mem_ctrls.wrQLenPdf::41                      0                       # What write queue length does an incoming req see
system.mem_ctrls.wrQLenPdf::42                      0                       # What write queue length does an incoming req see
system.mem_ctrls.wrQLenPdf::43                      0                       # What write queue length does an incoming req see
system.mem_ctrls.wrQLenPdf::44                      0                       # What write queue length does an incoming req see
system.mem_ctrls.wrQLenPdf::45                      0                       # What write queue length does an incoming req see
system.mem_ctrls.wrQLenPdf::46                      0                       # What write queue length does an incoming req see
system.mem_ctrls.wrQLenPdf::47                      0                       # What write queue length does an incoming req see
system.mem_ctrls.wrQLenPdf::48                      0                       # What write queue length does an incoming req see
system.mem_ctrls.wrQLenPdf::49                      0                       # What write queue length does an incoming req see
system.mem_ctrls.wrQLenPdf::50                      0                       # What write queue length does an incoming req see
system.mem_ctrls.wrQLenPdf::51                      0                       # What write queue length does an incoming req see
system.mem_ctrls.wrQLenPdf::52                      0                       # What write queue length does an incoming req see
system.mem_ctrls.wrQLenPdf::53                      0                       # What write queue length does an incoming req see
system.mem_ctrls.wrQLenPdf::54                      0                       # What write queue length does an incoming req see
system.mem_ctrls.wrQLenPdf::55                      0                       # What write queue length does an incoming req see
system.mem_ctrls.wrQLenPdf::56                      0                       # What write queue length does an incoming req see
system.mem_ctrls.wrQLenPdf::57                      0                       # What write queue length does an incoming req see
system.mem_ctrls.wrQLenPdf::58                      0                       # What write queue length does an incoming req see
system.mem_ctrls.wrQLenPdf::59                      0                       # What write queue length does an incoming req see
system.mem_ctrls.wrQLenPdf::60                      0                       # What write queue length does an incoming req see
system.mem_ctrls.wrQLenPdf::61                      0                       # What write queue length does an incoming req see
system.mem_ctrls.wrQLenPdf::62                      0                       # What write queue length does an incoming req see
system.mem_ctrls.wrQLenPdf::63                      0                       # What write queue length does an incoming req see
system.mem_ctrls.bytesPerActivate::samples         5254                       # Bytes accessed per row activation
system.mem_ctrls.bytesPerActivate::mean    320.048725                       # Bytes accessed per row activation
system.mem_ctrls.bytesPerActivate::gmean   176.171681                       # Bytes accessed per row activation
system.mem_ctrls.bytesPerActivate::stdev   350.820373                       # Bytes accessed per row activation
system.mem_ctrls.bytesPerActivate::0-127         2270     43.21%     43.21% # Bytes accessed per row activation
system.mem_ctrls.bytesPerActivate::128-255         1090     20.75%     63.95% # Bytes accessed per row activation
system.mem_ctrls.bytesPerActivate::256-383          334      6.36%     70.31% # Bytes accessed per row activation
system.mem_ctrls.bytesPerActivate::384-511          157      2.99%     73.30% # Bytes accessed per row activation
system.mem_ctrls.bytesPerActivate::512-639          110      2.09%     75.39% # Bytes accessed per row activation
system.mem_ctrls.bytesPerActivate::640-767          435      8.28%     83.67% # Bytes accessed per row activation
system.mem_ctrls.bytesPerActivate::768-895           52      0.99%     84.66% # Bytes accessed per row activation
system.mem_ctrls.bytesPerActivate::896-1023           56      1.07%     85.73% # Bytes accessed per row activation
system.mem_ctrls.bytesPerActivate::1024-1151          750     14.27%    100.00% # Bytes accessed per row activation
system.mem_ctrls.bytesPerActivate::total         5254                       # Bytes accessed per row activation
system.mem_ctrls.totQLat                    523757137                       # Total ticks spent queuing
system.mem_ctrls.totMemAccLat              1016863387                       # Total ticks spent from burst creation until serviced by the DRAM
system.mem_ctrls.totBusLat                  131495000                       # Total ticks spent in databus transfers
system.mem_ctrls.avgQLat                     19915.48                       # Average queueing delay per DRAM burst
system.mem_ctrls.avgBusLat                    5000.00                       # Average bus latency per DRAM burst
system.mem_ctrls.avgMemAccLat                38665.48                       # Average memory access latency per DRAM burst
system.mem_ctrls.avgRdBW                        76.25                       # Average DRAM read bandwidth in MiByte/s
system.mem_ctrls.avgWrBW                         0.00                       # Average achieved write bandwidth in MiByte/s
system.mem_ctrls.avgRdBWSys                     76.27                       # Average system read bandwidth in MiByte/s
system.mem_ctrls.avgWrBWSys                      0.04                       # Average system write bandwidth in MiByte/s
system.mem_ctrls.peakBW                      12800.00                       # Theoretical peak bandwidth in MiByte/s
system.mem_ctrls.busUtil                         0.60                       # Data bus utilization in percentage
system.mem_ctrls.busUtilRead                     0.60                       # Data bus utilization in percentage for reads
system.mem_ctrls.busUtilWrite                    0.00                       # Data bus utilization in percentage for writes
system.mem_ctrls.avgRdQLen                       1.03                       # Average read queue length when enqueuing
system.mem_ctrls.avgWrQLen                       4.73                       # Average write queue length when enqueuing
system.mem_ctrls.readRowHits                    21037                       # Number of row buffer hits during reads
system.mem_ctrls.writeRowHits                       0                       # Number of row buffer hits during writes
system.mem_ctrls.readRowHitRate                 79.99                       # Row buffer hit rate for reads
system.mem_ctrls.writeRowHitRate                 0.00                       # Row buffer hit rate for writes
system.mem_ctrls.avgGap                     838739.85                       # Average gap between requests
system.mem_ctrls.pageHitRate                    79.95                       # Row buffer hit rate, read and write combined
system.mem_ctrls_0.actEnergy                 18221280                       # Energy for activate commands per rank (pJ)
system.mem_ctrls_0.preEnergy                  9673455                       # Energy for precharge commands per rank (pJ)
system.mem_ctrls_0.readEnergy                93391200                       # Energy for read commands per rank (pJ)
system.mem_ctrls_0.writeEnergy                      0                       # Energy for write commands per rank (pJ)
system.mem_ctrls_0.refreshEnergy         118010880.000000                       # Energy for refresh commands per rank (pJ)
system.mem_ctrls_0.actBackEnergy            165277200                       # Energy for active background per rank (pJ)
system.mem_ctrls_0.preBackEnergy              3768960                       # Energy for precharge background per rank (pJ)
system.mem_ctrls_0.actPowerDownEnergy       469159020                       # Energy for active power-down per rank (pJ)
system.mem_ctrls_0.prePowerDownEnergy        25407360                       # Energy for precharge power-down per rank (pJ)
system.mem_ctrls_0.selfRefreshEnergy       4947825060                       # Energy for self refresh per rank (pJ)
system.mem_ctrls_0.totalEnergy             5850734415                       # Total energy per rank (pJ)
system.mem_ctrls_0.averagePower            265.050683                       # Core power per rank (mW)
system.mem_ctrls_0.totalIdleTime          21701639013                       # Total Idle time Per DRAM Rank
system.mem_ctrls_0.memoryStateTime::IDLE      2757750                       # Time in different power states
system.mem_ctrls_0.memoryStateTime::REF      49944000                       # Time in different power states
system.mem_ctrls_0.memoryStateTime::SREF  20606733000                       # Time in different power states
system.mem_ctrls_0.memoryStateTime::PRE_PDN     66121250                       # Time in different power states
system.mem_ctrls_0.memoryStateTime::ACT     319649987                       # Time in different power states
system.mem_ctrls_0.memoryStateTime::ACT_PDN   1028815013                       # Time in different power states
system.mem_ctrls_1.actEnergy                 19349400                       # Energy for activate commands per rank (pJ)
system.mem_ctrls_1.preEnergy                 10265475                       # Energy for precharge commands per rank (pJ)
system.mem_ctrls_1.readEnergy                94383660                       # Energy for read commands per rank (pJ)
system.mem_ctrls_1.writeEnergy                      0                       # Energy for write commands per rank (pJ)
system.mem_ctrls_1.refreshEnergy         118010880.000000                       # Energy for refresh commands per rank (pJ)
system.mem_ctrls_1.actBackEnergy            164214720                       # Energy for active background per rank (pJ)
system.mem_ctrls_1.preBackEnergy              3803520                       # Energy for precharge background per rank (pJ)
system.mem_ctrls_1.actPowerDownEnergy       474498210                       # Energy for active power-down per rank (pJ)
system.mem_ctrls_1.prePowerDownEnergy        22680480                       # Energy for precharge power-down per rank (pJ)
system.mem_ctrls_1.selfRefreshEnergy       4947256860                       # Energy for self refresh per rank (pJ)
system.mem_ctrls_1.totalEnergy             5854463205                       # Total energy per rank (pJ)
system.mem_ctrls_1.averagePower            265.219605                       # Core power per rank (mW)
system.mem_ctrls_1.totalIdleTime          21703946275                       # Total Idle time Per DRAM Rank
system.mem_ctrls_1.memoryStateTime::IDLE      2829001                       # Time in different power states
system.mem_ctrls_1.memoryStateTime::REF      49944000                       # Time in different power states
system.mem_ctrls_1.memoryStateTime::SREF  20604366500                       # Time in different power states
system.mem_ctrls_1.memoryStateTime::PRE_PDN     59050250                       # Time in different power states
system.mem_ctrls_1.memoryStateTime::ACT     317152474                       # Time in different power states
system.mem_ctrls_1.memoryStateTime::ACT_PDN   1040678775                       # Time in different power states
system.pwrStateResidencyTicks::UNDEFINED  22074021000                       # Cumulative time (in ticks) in various power states
system.cpu0.branchPred.lookups                5089757                       # Number of BP lookups
system.cpu0.branchPred.condPredicted          5089757                       # Number of conditional branches predicted
system.cpu0.branchPred.condIncorrect             8641                       # Number of conditional branches incorrect
system.cpu0.branchPred.BTBLookups             4706797                       # Number of BTB lookups
system.cpu0.branchPred.BTBHits                      0                       # Number of BTB hits
system.cpu0.branchPred.BTBCorrect                   0                       # Number of correct BTB predictions (this stat may not work properly.
system.cpu0.branchPred.BTBHitPct             0.000000                       # BTB Hit Percentage
system.cpu0.branchPred.usedRAS                 363062                       # Number of times the RAS was used to get a target.
system.cpu0.branchPred.RASInCorrect               493                       # Number of incorrect RAS predictions.
system.cpu0.branchPred.indirectLookups        4706797                       # Number of indirect predictor lookups.
system.cpu0.branchPred.indirectHits           2705104                       # Number of indirect target hits.
system.cpu0.branchPred.indirectMisses         2001693                       # Number of indirect misses.
system.cpu0.branchPredindirectMispredicted         4578                       # Number of mispredicted indirect branches.
system.cpu_voltage_domain.voltage                   1                       # Voltage in Volts
system.cpu0.clk_domain.clock                      500                       # Clock period in ticks
system.cpu0.dtb.walker.pwrStateResidencyTicks::UNDEFINED  22074021000                       # Cumulative time (in ticks) in various power states
system.cpu0.apic_clk_domain.clock                8000                       # Clock period in ticks
system.cpu0.interrupts.pwrStateResidencyTicks::UNDEFINED  22074021000                       # Cumulative time (in ticks) in various power states
system.cpu0.itb.walker.pwrStateResidencyTicks::UNDEFINED  22074021000                       # Cumulative time (in ticks) in various power states
system.cpu0.workload.num_syscalls              360550                       # Number of system calls
system.cpu0.pwrStateResidencyTicks::ON    22074021000                       # Cumulative time (in ticks) in various power states
system.cpu0.numCycles                        35598813                       # number of cpu cycles simulated
system.cpu0.numWorkItemsStarted                     0                       # number of work items this cpu started
system.cpu0.numWorkItemsCompleted                   0                       # number of work items this cpu completed
system.cpu0.fetch.icacheStallCycles           4353835                       # Number of cycles fetch is stalled on an Icache miss
system.cpu0.fetch.Insts                      14355324                       # Number of instructions fetch has processed
system.cpu0.fetch.Branches                    5089757                       # Number of branches that fetch encountered
system.cpu0.fetch.predictedBranches           3068166                       # Number of branches that fetch has predicted taken
system.cpu0.fetch.Cycles                     31142348                       # Number of cycles fetch has run and was not squashing or blocked
system.cpu0.fetch.SquashCycles                  17515                       # Number of cycles fetch has spent squashing
system.cpu0.fetch.MiscStallCycles                9563                       # Number of cycles fetch has spent waiting on interrupts, or bad addresses, or out of MSHRs
system.cpu0.fetch.NoActiveThreadStallCycles           10                       # Number of stall cycles due to no active thread to fetch from
system.cpu0.fetch.PendingTrapStallCycles          414                       # Number of stall cycles due to pending traps
system.cpu0.fetch.PendingQuiesceStallCycles           13                       # Number of stall cycles due to pending quiesce instructions
system.cpu0.fetch.IcacheWaitRetryStallCycles         6372                       # Number of stall cycles due to full MSHR
system.cpu0.fetch.CacheLines                  4324256                       # Number of cache lines fetched
system.cpu0.fetch.IcacheSquashes                 2648                       # Number of outstanding Icache misses that were squashed
system.cpu0.fetch.rateDist::samples          35521312                       # Number of instructions fetched each cycle (Total)
system.cpu0.fetch.rateDist::mean             0.806242                       # Number of instructions fetched each cycle (Total)
system.cpu0.fetch.rateDist::stdev            2.158355                       # Number of instructions fetched each cycle (Total)
system.cpu0.fetch.rateDist::underflows              0      0.00%      0.00% # Number of instructions fetched each cycle (Total)
system.cpu0.fetch.rateDist::0                30577893     86.08%     86.08% # Number of instructions fetched each cycle (Total)
system.cpu0.fetch.rateDist::1                    8732      0.02%     86.11% # Number of instructions fetched each cycle (Total)
system.cpu0.fetch.rateDist::2                  183899      0.52%     86.63% # Number of instructions fetched each cycle (Total)
system.cpu0.fetch.rateDist::3                  730736      2.06%     88.68% # Number of instructions fetched each cycle (Total)
system.cpu0.fetch.rateDist::4                 1241144      3.49%     92.18% # Number of instructions fetched each cycle (Total)
system.cpu0.fetch.rateDist::5                    8176      0.02%     92.20% # Number of instructions fetched each cycle (Total)
system.cpu0.fetch.rateDist::6                  187035      0.53%     92.73% # Number of instructions fetched each cycle (Total)
system.cpu0.fetch.rateDist::7                  727190      2.05%     94.77% # Number of instructions fetched each cycle (Total)
system.cpu0.fetch.rateDist::8                 1856507      5.23%    100.00% # Number of instructions fetched each cycle (Total)
system.cpu0.fetch.rateDist::overflows               0      0.00%    100.00% # Number of instructions fetched each cycle (Total)
system.cpu0.fetch.rateDist::min_value               0                       # Number of instructions fetched each cycle (Total)
system.cpu0.fetch.rateDist::max_value               8                       # Number of instructions fetched each cycle (Total)
system.cpu0.fetch.rateDist::total            35521312                       # Number of instructions fetched each cycle (Total)
system.cpu0.fetch.branchRate                 0.142975                       # Number of branch fetches per cycle
system.cpu0.fetch.rate                       0.403253                       # Number of inst fetches per cycle
system.cpu0.decode.IdleCycles                  967921                       # Number of cycles decode is idle
system.cpu0.decode.BlockedCycles             30873642                       # Number of cycles decode is blocked
system.cpu0.decode.RunCycles                  1353145                       # Number of cycles decode is running
system.cpu0.decode.UnblockCycles              2317837                       # Number of cycles decode is unblocking
system.cpu0.decode.SquashCycles                  8757                       # Number of cycles decode is squashing
system.cpu0.decode.DecodedInsts              28557270                       # Number of instructions handled by decode
system.cpu0.rename.SquashCycles                  8757                       # Number of cycles rename is squashing
system.cpu0.rename.IdleCycles                 1548843                       # Number of cycles rename is idle
system.cpu0.rename.BlockCycles                3417024                       # Number of cycles rename is blocking
system.cpu0.rename.serializeStallCycles      24380088                       # count of cycles rename stalled for serializing inst
system.cpu0.rename.RunCycles                  2260380                       # Number of cycles rename is running
system.cpu0.rename.UnblockCycles              3906210                       # Number of cycles rename is unblocking
system.cpu0.rename.RenamedInsts              28515548                       # Number of instructions processed by rename
system.cpu0.rename.ROBFullEvents              1993984                       # Number of times rename has blocked due to ROB full
system.cpu0.rename.IQFullEvents                 16626                       # Number of times rename has blocked due to IQ full
system.cpu0.rename.LQFullEvents                791786                       # Number of times rename has blocked due to LQ full
system.cpu0.rename.SQFullEvents                 33871                       # Number of times rename has blocked due to SQ full
system.cpu0.rename.RenamedOperands           30446818                       # Number of destination operands rename has renamed
system.cpu0.rename.RenameLookups             65331210                       # Number of register rename lookups that rename has made
system.cpu0.rename.int_rename_lookups        32296752                       # Number of integer rename lookups
system.cpu0.rename.fp_rename_lookups            16973                       # Number of floating rename lookups
system.cpu0.rename.CommittedMaps             29939871                       # Number of HB maps that are committed
system.cpu0.rename.UndoneMaps                  506947                       # Number of HB maps that are undone due to squashing
system.cpu0.rename.serializingInsts            360582                       # count of serializing insts renamed
system.cpu0.rename.tempSerializingInsts        360585                       # count of temporary serializing insts renamed
system.cpu0.rename.skidInsts                 14447891                       # count of insts added to the skid buffer
system.cpu0.memDep0.insertedLoads             4005267                       # Number of loads inserted to the mem dependence unit.
system.cpu0.memDep0.insertedStores             384140                       # Number of stores inserted to the mem dependence unit.
system.cpu0.memDep0.conflictingLoads             8549                       # Number of conflicting loads.
system.cpu0.memDep0.conflictingStores            1460                       # Number of conflicting stores.
system.cpu0.iq.iqInstsAdded                  28079472                       # Number of instructions added to the IQ (excludes non-spec)
system.cpu0.iq.iqNonSpecInstsAdded             360627                       # Number of non-speculative instructions added to the IQ
system.cpu0.iq.iqInstsIssued                 28441069                       # Number of instructions issued
system.cpu0.iq.iqSquashedInstsIssued             6718                       # Number of squashed instructions issued
system.cpu0.iq.iqSquashedInstsExamined         334568                       # Number of squashed instructions iterated over during squash; mainly for profiling
system.cpu0.iq.iqSquashedOperandsExamined       503223                       # Number of squashed operands that are examined and possibly removed from graph
system.cpu0.iq.iqSquashedNonSpecRemoved            77                       # Number of squashed non-spec instructions that were removed
system.cpu0.iq.issued_per_cycle::samples     35521312                       # Number of insts issued each cycle
system.cpu0.iq.issued_per_cycle::mean        0.800676                       # Number of insts issued each cycle
system.cpu0.iq.issued_per_cycle::stdev       1.595569                       # Number of insts issued each cycle
system.cpu0.iq.issued_per_cycle::underflows            0      0.00%      0.00% # Number of insts issued each cycle
system.cpu0.iq.issued_per_cycle::0           25375055     71.44%     71.44% # Number of insts issued each cycle
system.cpu0.iq.issued_per_cycle::1            3492474      9.83%     81.27% # Number of insts issued each cycle
system.cpu0.iq.issued_per_cycle::2            1661317      4.68%     85.95% # Number of insts issued each cycle
system.cpu0.iq.issued_per_cycle::3            2025180      5.70%     91.65% # Number of insts issued each cycle
system.cpu0.iq.issued_per_cycle::4             991595      2.79%     94.44% # Number of insts issued each cycle
system.cpu0.iq.issued_per_cycle::5             667599      1.88%     96.32% # Number of insts issued each cycle
system.cpu0.iq.issued_per_cycle::6             923137      2.60%     98.92% # Number of insts issued each cycle
system.cpu0.iq.issued_per_cycle::7             372416      1.05%     99.96% # Number of insts issued each cycle
system.cpu0.iq.issued_per_cycle::8              12539      0.04%    100.00% # Number of insts issued each cycle
system.cpu0.iq.issued_per_cycle::overflows            0      0.00%    100.00% # Number of insts issued each cycle
system.cpu0.iq.issued_per_cycle::min_value            0                       # Number of insts issued each cycle
system.cpu0.iq.issued_per_cycle::max_value            8                       # Number of insts issued each cycle
system.cpu0.iq.issued_per_cycle::total       35521312                       # Number of insts issued each cycle
system.cpu0.iq.fu_full::No_OpClass                  0      0.00%      0.00% # attempts to use FU when none available
system.cpu0.iq.fu_full::IntAlu                 186041     90.95%     90.95% # attempts to use FU when none available
system.cpu0.iq.fu_full::IntMult                     0      0.00%     90.95% # attempts to use FU when none available
system.cpu0.iq.fu_full::IntDiv                      0      0.00%     90.95% # attempts to use FU when none available
system.cpu0.iq.fu_full::FloatAdd                   41      0.02%     90.97% # attempts to use FU when none available
system.cpu0.iq.fu_full::FloatCmp                    0      0.00%     90.97% # attempts to use FU when none available
system.cpu0.iq.fu_full::FloatCvt                    0      0.00%     90.97% # attempts to use FU when none available
system.cpu0.iq.fu_full::FloatMult                   0      0.00%     90.97% # attempts to use FU when none available
system.cpu0.iq.fu_full::FloatMultAcc                0      0.00%     90.97% # attempts to use FU when none available
system.cpu0.iq.fu_full::FloatDiv                    0      0.00%     90.97% # attempts to use FU when none available
system.cpu0.iq.fu_full::FloatMisc                   0      0.00%     90.97% # attempts to use FU when none available
system.cpu0.iq.fu_full::FloatSqrt                   0      0.00%     90.97% # attempts to use FU when none available
system.cpu0.iq.fu_full::SimdAdd                     0      0.00%     90.97% # attempts to use FU when none available
system.cpu0.iq.fu_full::SimdAddAcc                  0      0.00%     90.97% # attempts to use FU when none available
system.cpu0.iq.fu_full::SimdAlu                     0      0.00%     90.97% # attempts to use FU when none available
system.cpu0.iq.fu_full::SimdCmp                     0      0.00%     90.97% # attempts to use FU when none available
system.cpu0.iq.fu_full::SimdCvt                     0      0.00%     90.97% # attempts to use FU when none available
system.cpu0.iq.fu_full::SimdMisc                    0      0.00%     90.97% # attempts to use FU when none available
system.cpu0.iq.fu_full::SimdMult                    0      0.00%     90.97% # attempts to use FU when none available
system.cpu0.iq.fu_full::SimdMultAcc                 0      0.00%     90.97% # attempts to use FU when none available
system.cpu0.iq.fu_full::SimdShift                   0      0.00%     90.97% # attempts to use FU when none available
system.cpu0.iq.fu_full::SimdShiftAcc                0      0.00%     90.97% # attempts to use FU when none available
system.cpu0.iq.fu_full::SimdSqrt                    0      0.00%     90.97% # attempts to use FU when none available
system.cpu0.iq.fu_full::SimdFloatAdd                0      0.00%     90.97% # attempts to use FU when none available
system.cpu0.iq.fu_full::SimdFloatAlu                0      0.00%     90.97% # attempts to use FU when none available
system.cpu0.iq.fu_full::SimdFloatCmp                0      0.00%     90.97% # attempts to use FU when none available
system.cpu0.iq.fu_full::SimdFloatCvt                0      0.00%     90.97% # attempts to use FU when none available
system.cpu0.iq.fu_full::SimdFloatDiv                0      0.00%     90.97% # attempts to use FU when none available
system.cpu0.iq.fu_full::SimdFloatMisc               0      0.00%     90.97% # attempts to use FU when none available
system.cpu0.iq.fu_full::SimdFloatMult               0      0.00%     90.97% # attempts to use FU when none available
system.cpu0.iq.fu_full::SimdFloatMultAcc            0      0.00%     90.97% # attempts to use FU when none available
system.cpu0.iq.fu_full::SimdFloatSqrt               0      0.00%     90.97% # attempts to use FU when none available
system.cpu0.iq.fu_full::MemRead                 17617      8.61%     99.58% # attempts to use FU when none available
system.cpu0.iq.fu_full::MemWrite                  727      0.36%     99.94% # attempts to use FU when none available
system.cpu0.iq.fu_full::FloatMemRead               78      0.04%     99.98% # attempts to use FU when none available
system.cpu0.iq.fu_full::FloatMemWrite              44      0.02%    100.00% # attempts to use FU when none available
system.cpu0.iq.fu_full::IprAccess                   0      0.00%    100.00% # attempts to use FU when none available
system.cpu0.iq.fu_full::InstPrefetch                0      0.00%    100.00% # attempts to use FU when none available
system.cpu0.iq.FU_type_0::No_OpClass             4092      0.01%      0.01% # Type of FU issued
system.cpu0.iq.FU_type_0::IntAlu             23762901     83.55%     83.57% # Type of FU issued
system.cpu0.iq.FU_type_0::IntMult              182146      0.64%     84.21% # Type of FU issued
system.cpu0.iq.FU_type_0::IntDiv                 1213      0.00%     84.21% # Type of FU issued
system.cpu0.iq.FU_type_0::FloatAdd               4067      0.01%     84.22% # Type of FU issued
system.cpu0.iq.FU_type_0::FloatCmp                  0      0.00%     84.22% # Type of FU issued
system.cpu0.iq.FU_type_0::FloatCvt                  0      0.00%     84.22% # Type of FU issued
system.cpu0.iq.FU_type_0::FloatMult                 0      0.00%     84.22% # Type of FU issued
system.cpu0.iq.FU_type_0::FloatMultAcc              0      0.00%     84.22% # Type of FU issued
system.cpu0.iq.FU_type_0::FloatDiv                  0      0.00%     84.22% # Type of FU issued
system.cpu0.iq.FU_type_0::FloatMisc                 0      0.00%     84.22% # Type of FU issued
system.cpu0.iq.FU_type_0::FloatSqrt                 0      0.00%     84.22% # Type of FU issued
system.cpu0.iq.FU_type_0::SimdAdd                   0      0.00%     84.22% # Type of FU issued
system.cpu0.iq.FU_type_0::SimdAddAcc                0      0.00%     84.22% # Type of FU issued
system.cpu0.iq.FU_type_0::SimdAlu                   0      0.00%     84.22% # Type of FU issued
system.cpu0.iq.FU_type_0::SimdCmp                   0      0.00%     84.22% # Type of FU issued
system.cpu0.iq.FU_type_0::SimdCvt                   0      0.00%     84.22% # Type of FU issued
system.cpu0.iq.FU_type_0::SimdMisc                  0      0.00%     84.22% # Type of FU issued
system.cpu0.iq.FU_type_0::SimdMult                  0      0.00%     84.22% # Type of FU issued
system.cpu0.iq.FU_type_0::SimdMultAcc               0      0.00%     84.22% # Type of FU issued
system.cpu0.iq.FU_type_0::SimdShift                 0      0.00%     84.22% # Type of FU issued
system.cpu0.iq.FU_type_0::SimdShiftAcc              0      0.00%     84.22% # Type of FU issued
system.cpu0.iq.FU_type_0::SimdSqrt                  0      0.00%     84.22% # Type of FU issued
system.cpu0.iq.FU_type_0::SimdFloatAdd              0      0.00%     84.22% # Type of FU issued
system.cpu0.iq.FU_type_0::SimdFloatAlu              0      0.00%     84.22% # Type of FU issued
system.cpu0.iq.FU_type_0::SimdFloatCmp              0      0.00%     84.22% # Type of FU issued
system.cpu0.iq.FU_type_0::SimdFloatCvt              0      0.00%     84.22% # Type of FU issued
system.cpu0.iq.FU_type_0::SimdFloatDiv              0      0.00%     84.22% # Type of FU issued
system.cpu0.iq.FU_type_0::SimdFloatMisc             0      0.00%     84.22% # Type of FU issued
system.cpu0.iq.FU_type_0::SimdFloatMult             0      0.00%     84.22% # Type of FU issued
system.cpu0.iq.FU_type_0::SimdFloatMultAcc            0      0.00%     84.22% # Type of FU issued
system.cpu0.iq.FU_type_0::SimdFloatSqrt             0      0.00%     84.22% # Type of FU issued
system.cpu0.iq.FU_type_0::MemRead             4103366     14.43%     98.65% # Type of FU issued
system.cpu0.iq.FU_type_0::MemWrite             379178      1.33%     99.99% # Type of FU issued
system.cpu0.iq.FU_type_0::FloatMemRead           3679      0.01%    100.00% # Type of FU issued
system.cpu0.iq.FU_type_0::FloatMemWrite           427      0.00%    100.00% # Type of FU issued
system.cpu0.iq.FU_type_0::IprAccess                 0      0.00%    100.00% # Type of FU issued
system.cpu0.iq.FU_type_0::InstPrefetch              0      0.00%    100.00% # Type of FU issued
system.cpu0.iq.FU_type_0::total              28441069                       # Type of FU issued
system.cpu0.iq.rate                          0.798933                       # Inst issue rate
system.cpu0.iq.fu_busy_cnt                     204548                       # FU busy when requested
system.cpu0.iq.fu_busy_rate                  0.007192                       # FU busy rate (busy events/executed inst)
system.cpu0.iq.int_inst_queue_reads          92597713                       # Number of integer instruction queue reads
system.cpu0.iq.int_inst_queue_writes         28759653                       # Number of integer instruction queue writes
system.cpu0.iq.int_inst_queue_wakeup_accesses     28290191                       # Number of integer instruction queue wakeup accesses
system.cpu0.iq.fp_inst_queue_reads              17003                       # Number of floating instruction queue reads
system.cpu0.iq.fp_inst_queue_writes             15124                       # Number of floating instruction queue writes
system.cpu0.iq.fp_inst_queue_wakeup_accesses         5884                       # Number of floating instruction queue wakeup accesses
system.cpu0.iq.int_alu_accesses              28633064                       # Number of integer alu accesses
system.cpu0.iq.fp_alu_accesses                   8461                       # Number of floating point alu accesses
system.cpu0.iew.lsq.thread0.forwLoads            8030                       # Number of loads that had data forwarded from stores
system.cpu0.iew.lsq.thread0.invAddrLoads            0                       # Number of loads ignored due to an invalid address
system.cpu0.iew.lsq.thread0.squashedLoads        46334                       # Number of loads squashed
system.cpu0.iew.lsq.thread0.ignoredResponses           29                       # Number of memory responses ignored because the instruction is squashed
system.cpu0.iew.lsq.thread0.memOrderViolation          116                       # Number of memory ordering violations
system.cpu0.iew.lsq.thread0.squashedStores        10022                       # Number of stores squashed
system.cpu0.iew.lsq.thread0.invAddrSwpfs            0                       # Number of software prefetches ignored due to an invalid address
system.cpu0.iew.lsq.thread0.blockedLoads            0                       # Number of blocked loads due to partial load-store forwarding
system.cpu0.iew.lsq.thread0.rescheduledLoads            7                       # Number of loads that were rescheduled
system.cpu0.iew.lsq.thread0.cacheBlocked       114749                       # Number of times an access to memory failed due to the cache being blocked
system.cpu0.iew.iewIdleCycles                       0                       # Number of cycles IEW is idle
system.cpu0.iew.iewSquashCycles                  8757                       # Number of cycles IEW is squashing
system.cpu0.iew.iewBlockCycles                 114716                       # Number of cycles IEW is blocking
system.cpu0.iew.iewUnblockCycles                 6280                       # Number of cycles IEW is unblocking
system.cpu0.iew.iewDispatchedInsts           28440099                       # Number of instructions dispatched to IQ
system.cpu0.iew.iewDispSquashedInsts             2207                       # Number of squashed instructions skipped by dispatch
system.cpu0.iew.iewDispLoadInsts              4005267                       # Number of dispatched load instructions
system.cpu0.iew.iewDispStoreInsts              384140                       # Number of dispatched store instructions
system.cpu0.iew.iewDispNonSpecInsts            360592                       # Number of dispatched non-speculative instructions
system.cpu0.iew.iewIQFullEvents                   543                       # Number of times the IQ has become full, causing a stall
system.cpu0.iew.iewLSQFullEvents                 5342                       # Number of times the LSQ has become full, causing a stall
system.cpu0.iew.memOrderViolationEvents           116                       # Number of memory order violations
system.cpu0.iew.predictedTakenIncorrect          2018                       # Number of branches that were predicted taken incorrectly
system.cpu0.iew.predictedNotTakenIncorrect         9056                       # Number of branches that were predicted not taken incorrectly
system.cpu0.iew.branchMispredicts               11074                       # Number of branch mispredicts detected at execute
system.cpu0.iew.iewExecutedInsts             28420267                       # Number of executed instructions
system.cpu0.iew.iewExecLoadInsts              4100725                       # Number of load instructions executed
system.cpu0.iew.iewExecSquashedInsts            20802                       # Number of squashed instructions skipped in execute
system.cpu0.iew.exec_swp                            0                       # number of swp insts executed
system.cpu0.iew.exec_nop                            0                       # number of nop insts executed
system.cpu0.iew.exec_refs                     4479370                       # number of memory reference insts executed
system.cpu0.iew.exec_branches                 5038712                       # Number of branches executed
system.cpu0.iew.exec_stores                    378645                       # Number of stores executed
system.cpu0.iew.exec_rate                    0.798349                       # Inst execution rate
system.cpu0.iew.wb_sent                      28301078                       # cumulative count of insts sent to commit
system.cpu0.iew.wb_count                     28296075                       # cumulative count of insts written-back
system.cpu0.iew.wb_producers                 19308558                       # num instructions producing a value
system.cpu0.iew.wb_consumers                 28528819                       # num instructions consuming a value
system.cpu0.iew.wb_rate                      0.794860                       # insts written-back per cycle
system.cpu0.iew.wb_fanout                    0.676809                       # average fanout of values written-back
system.cpu0.commit.commitSquashedInsts         334643                       # The number of squashed insts skipped by commit
system.cpu0.commit.commitNonSpecStalls         360550                       # The number of times commit has been forced to stall to communicate backwards
system.cpu0.commit.branchMispredicts             8661                       # The number of times a branch was mispredicted
system.cpu0.commit.committed_per_cycle::samples     35470851                       # Number of insts commited each cycle
system.cpu0.commit.committed_per_cycle::mean     0.792356                       # Number of insts commited each cycle
system.cpu0.commit.committed_per_cycle::stdev     1.981379                       # Number of insts commited each cycle
system.cpu0.commit.committed_per_cycle::underflows            0      0.00%      0.00% # Number of insts commited each cycle
system.cpu0.commit.committed_per_cycle::0     27713960     78.13%     78.13% # Number of insts commited each cycle
system.cpu0.commit.committed_per_cycle::1      2701716      7.62%     85.75% # Number of insts commited each cycle
system.cpu0.commit.committed_per_cycle::2       552620      1.56%     87.31% # Number of insts commited each cycle
system.cpu0.commit.committed_per_cycle::3      1971886      5.56%     92.87% # Number of insts commited each cycle
system.cpu0.commit.committed_per_cycle::4       369812      1.04%     93.91% # Number of insts commited each cycle
system.cpu0.commit.committed_per_cycle::5         6084      0.02%     93.93% # Number of insts commited each cycle
system.cpu0.commit.committed_per_cycle::6       181803      0.51%     94.44% # Number of insts commited each cycle
system.cpu0.commit.committed_per_cycle::7         1329      0.00%     94.44% # Number of insts commited each cycle
system.cpu0.commit.committed_per_cycle::8      1971641      5.56%    100.00% # Number of insts commited each cycle
system.cpu0.commit.committed_per_cycle::overflows            0      0.00%    100.00% # Number of insts commited each cycle
system.cpu0.commit.committed_per_cycle::min_value            0                       # Number of insts commited each cycle
system.cpu0.commit.committed_per_cycle::max_value            8                       # Number of insts commited each cycle
system.cpu0.commit.committed_per_cycle::total     35470851                       # Number of insts commited each cycle
system.cpu0.commit.committedInsts            14071741                       # Number of instructions committed
system.cpu0.commit.committedOps              28105531                       # Number of ops (including micro ops) committed
system.cpu0.commit.swp_count                        0                       # Number of s/w prefetches committed
system.cpu0.commit.refs                       4333051                       # Number of memory references committed
system.cpu0.commit.loads                      3958933                       # Number of loads committed
system.cpu0.commit.membars                          0                       # Number of memory barriers committed
system.cpu0.commit.branches                   5025256                       # Number of branches committed
system.cpu0.commit.fp_insts                      3624                       # Number of committed floating point instructions.
system.cpu0.commit.int_insts                 28102081                       # Number of committed integer instructions.
system.cpu0.commit.function_calls              361216                       # Number of function calls committed.
system.cpu0.commit.op_class_0::No_OpClass         1327      0.00%      0.00% # Class of committed instruction
system.cpu0.commit.op_class_0::IntAlu        23585545     83.92%     83.92% # Class of committed instruction
system.cpu0.commit.op_class_0::IntMult         182086      0.65%     84.57% # Class of committed instruction
system.cpu0.commit.op_class_0::IntDiv            1171      0.00%     84.57% # Class of committed instruction
system.cpu0.commit.op_class_0::FloatAdd          2351      0.01%     84.58% # Class of committed instruction
system.cpu0.commit.op_class_0::FloatCmp             0      0.00%     84.58% # Class of committed instruction
system.cpu0.commit.op_class_0::FloatCvt             0      0.00%     84.58% # Class of committed instruction
system.cpu0.commit.op_class_0::FloatMult            0      0.00%     84.58% # Class of committed instruction
system.cpu0.commit.op_class_0::FloatMultAcc            0      0.00%     84.58% # Class of committed instruction
system.cpu0.commit.op_class_0::FloatDiv             0      0.00%     84.58% # Class of committed instruction
system.cpu0.commit.op_class_0::FloatMisc            0      0.00%     84.58% # Class of committed instruction
system.cpu0.commit.op_class_0::FloatSqrt            0      0.00%     84.58% # Class of committed instruction
system.cpu0.commit.op_class_0::SimdAdd              0      0.00%     84.58% # Class of committed instruction
system.cpu0.commit.op_class_0::SimdAddAcc            0      0.00%     84.58% # Class of committed instruction
system.cpu0.commit.op_class_0::SimdAlu              0      0.00%     84.58% # Class of committed instruction
system.cpu0.commit.op_class_0::SimdCmp              0      0.00%     84.58% # Class of committed instruction
system.cpu0.commit.op_class_0::SimdCvt              0      0.00%     84.58% # Class of committed instruction
system.cpu0.commit.op_class_0::SimdMisc             0      0.00%     84.58% # Class of committed instruction
system.cpu0.commit.op_class_0::SimdMult             0      0.00%     84.58% # Class of committed instruction
system.cpu0.commit.op_class_0::SimdMultAcc            0      0.00%     84.58% # Class of committed instruction
system.cpu0.commit.op_class_0::SimdShift            0      0.00%     84.58% # Class of committed instruction
system.cpu0.commit.op_class_0::SimdShiftAcc            0      0.00%     84.58% # Class of committed instruction
system.cpu0.commit.op_class_0::SimdSqrt             0      0.00%     84.58% # Class of committed instruction
system.cpu0.commit.op_class_0::SimdFloatAdd            0      0.00%     84.58% # Class of committed instruction
system.cpu0.commit.op_class_0::SimdFloatAlu            0      0.00%     84.58% # Class of committed instruction
system.cpu0.commit.op_class_0::SimdFloatCmp            0      0.00%     84.58% # Class of committed instruction
system.cpu0.commit.op_class_0::SimdFloatCvt            0      0.00%     84.58% # Class of committed instruction
system.cpu0.commit.op_class_0::SimdFloatDiv            0      0.00%     84.58% # Class of committed instruction
system.cpu0.commit.op_class_0::SimdFloatMisc            0      0.00%     84.58% # Class of committed instruction
system.cpu0.commit.op_class_0::SimdFloatMult            0      0.00%     84.58% # Class of committed instruction
system.cpu0.commit.op_class_0::SimdFloatMultAcc            0      0.00%     84.58% # Class of committed instruction
system.cpu0.commit.op_class_0::SimdFloatSqrt            0      0.00%     84.58% # Class of committed instruction
system.cpu0.commit.op_class_0::MemRead        3958107     14.08%     98.67% # Class of committed instruction
system.cpu0.commit.op_class_0::MemWrite        373734      1.33%    100.00% # Class of committed instruction
system.cpu0.commit.op_class_0::FloatMemRead          826      0.00%    100.00% # Class of committed instruction
system.cpu0.commit.op_class_0::FloatMemWrite          384      0.00%    100.00% # Class of committed instruction
system.cpu0.commit.op_class_0::IprAccess            0      0.00%    100.00% # Class of committed instruction
system.cpu0.commit.op_class_0::InstPrefetch            0      0.00%    100.00% # Class of committed instruction
system.cpu0.commit.op_class_0::total         28105531                       # Class of committed instruction
system.cpu0.commit.bw_lim_events              1971641                       # number cycles where commit BW limit reached
system.cpu0.rob.rob_reads                    61939384                       # The number of ROB reads
system.cpu0.rob.rob_writes                   56931479                       # The number of ROB writes
system.cpu0.timesIdled                            788                       # Number of times that the entire CPU went into an idle state and unscheduled itself
system.cpu0.idleCycles                          77501                       # Total number of cycles that the CPU has spent unscheduled due to idling
system.cpu0.committedInsts                   14071741                       # Number of Instructions Simulated
system.cpu0.committedOps                     28105531                       # Number of Ops (including micro ops) Simulated
system.cpu0.cpi                              2.529809                       # CPI: Cycles Per Instruction
system.cpu0.cpi_total                        2.529809                       # CPI: Total CPI of All Threads
system.cpu0.ipc                              0.395287                       # IPC: Instructions Per Cycle
system.cpu0.ipc_total                        0.395287                       # IPC: Total IPC of All Threads
system.cpu0.int_regfile_reads                32150395                       # number of integer regfile reads
system.cpu0.int_regfile_writes               23417704                       # number of integer regfile writes
system.cpu0.fp_regfile_reads                     8803                       # number of floating regfile reads
system.cpu0.fp_regfile_writes                    5087                       # number of floating regfile writes
system.cpu0.cc_regfile_reads                 17386277                       # number of cc regfile reads
system.cpu0.cc_regfile_writes                 7461906                       # number of cc regfile writes
system.cpu0.misc_regfile_reads               15453860                       # number of misc regfile reads
system.cpu1.branchPred.lookups                2760434                       # Number of BP lookups
system.cpu1.branchPred.condPredicted          2760434                       # Number of conditional branches predicted
system.cpu1.branchPred.condIncorrect             8866                       # Number of conditional branches incorrect
system.cpu1.branchPred.BTBLookups             2723281                       # Number of BTB lookups
system.cpu1.branchPred.BTBHits                      0                       # Number of BTB hits
system.cpu1.branchPred.BTBCorrect                   0                       # Number of correct BTB predictions (this stat may not work properly.
system.cpu1.branchPred.BTBHitPct             0.000000                       # BTB Hit Percentage
system.cpu1.branchPred.usedRAS                   2460                       # Number of times the RAS was used to get a target.
system.cpu1.branchPred.RASInCorrect               495                       # Number of incorrect RAS predictions.
system.cpu1.branchPred.indirectLookups        2723281                       # Number of indirect predictor lookups.
system.cpu1.branchPred.indirectHits           1358843                       # Number of indirect target hits.
system.cpu1.branchPred.indirectMisses         1364438                       # Number of indirect misses.
system.cpu1.branchPredindirectMispredicted         4695                       # Number of mispredicted indirect branches.
system.cpu1.clk_domain.clock                      500                       # Clock period in ticks
system.cpu1.dtb.walker.pwrStateResidencyTicks::UNDEFINED  22074021000                       # Cumulative time (in ticks) in various power states
system.cpu1.apic_clk_domain.clock                8000                       # Clock period in ticks
system.cpu1.interrupts.pwrStateResidencyTicks::UNDEFINED  22074021000                       # Cumulative time (in ticks) in various power states
system.cpu1.itb.walker.pwrStateResidencyTicks::UNDEFINED  22074021000                       # Cumulative time (in ticks) in various power states
system.cpu1.workload.num_syscalls                  42                       # Number of system calls
system.cpu1.pwrStateResidencyTicks::ON    22074021000                       # Cumulative time (in ticks) in various power states
system.cpu1.numCycles                        10498107                       # number of cpu cycles simulated
system.cpu1.numWorkItemsStarted                     0                       # number of work items this cpu started
system.cpu1.numWorkItemsCompleted                   0                       # number of work items this cpu completed
system.cpu1.fetch.icacheStallCycles           2766814                       # Number of cycles fetch is stalled on an Icache miss
system.cpu1.fetch.Insts                       8963750                       # Number of instructions fetch has processed
system.cpu1.fetch.Branches                    2760434                       # Number of branches that fetch encountered
system.cpu1.fetch.predictedBranches           1361303                       # Number of branches that fetch has predicted taken
system.cpu1.fetch.Cycles                      7627360                       # Number of cycles fetch has run and was not squashing or blocked
system.cpu1.fetch.SquashCycles                  17985                       # Number of cycles fetch has spent squashing
system.cpu1.fetch.MiscStallCycles               10660                       # Number of cycles fetch has spent waiting on interrupts, or bad addresses, or out of MSHRs
system.cpu1.fetch.NoActiveThreadStallCycles           10                       # Number of stall cycles due to no active thread to fetch from
system.cpu1.fetch.PendingTrapStallCycles          556                       # Number of stall cycles due to pending traps
system.cpu1.fetch.PendingQuiesceStallCycles           11                       # Number of stall cycles due to pending quiesce instructions
system.cpu1.fetch.IcacheWaitRetryStallCycles         7014                       # Number of stall cycles due to full MSHR
system.cpu1.fetch.CacheLines                  2737838                       # Number of cache lines fetched
system.cpu1.fetch.IcacheSquashes                 2643                       # Number of outstanding Icache misses that were squashed
system.cpu1.fetch.rateDist::samples          10421417                       # Number of instructions fetched each cycle (Total)
system.cpu1.fetch.rateDist::mean             1.679689                       # Number of instructions fetched each cycle (Total)
system.cpu1.fetch.rateDist::stdev            2.908051                       # Number of instructions fetched each cycle (Total)
system.cpu1.fetch.rateDist::underflows              0      0.00%      0.00% # Number of instructions fetched each cycle (Total)
system.cpu1.fetch.rateDist::0                 7511749     72.08%     72.08% # Number of instructions fetched each cycle (Total)
system.cpu1.fetch.rateDist::1                   20593      0.20%     72.28% # Number of instructions fetched each cycle (Total)
system.cpu1.fetch.rateDist::2                    3743      0.04%     72.31% # Number of instructions fetched each cycle (Total)
system.cpu1.fetch.rateDist::3                   40367      0.39%     72.70% # Number of instructions fetched each cycle (Total)
system.cpu1.fetch.rateDist::4                 1336414     12.82%     85.52% # Number of instructions fetched each cycle (Total)
system.cpu1.fetch.rateDist::5                   10653      0.10%     85.63% # Number of instructions fetched each cycle (Total)
system.cpu1.fetch.rateDist::6                    9412      0.09%     85.72% # Number of instructions fetched each cycle (Total)
system.cpu1.fetch.rateDist::7                    7723      0.07%     85.79% # Number of instructions fetched each cycle (Total)
system.cpu1.fetch.rateDist::8                 1480763     14.21%    100.00% # Number of instructions fetched each cycle (Total)
system.cpu1.fetch.rateDist::overflows               0      0.00%    100.00% # Number of instructions fetched each cycle (Total)
system.cpu1.fetch.rateDist::min_value               0                       # Number of instructions fetched each cycle (Total)
system.cpu1.fetch.rateDist::max_value               8                       # Number of instructions fetched each cycle (Total)
system.cpu1.fetch.rateDist::total            10421417                       # Number of instructions fetched each cycle (Total)
system.cpu1.fetch.branchRate                 0.262946                       # Number of branch fetches per cycle
system.cpu1.fetch.rate                       0.853844                       # Number of inst fetches per cycle
system.cpu1.decode.IdleCycles                  765280                       # Number of cycles decode is idle
system.cpu1.decode.BlockedCycles              7454550                       # Number of cycles decode is blocked
system.cpu1.decode.RunCycles                   143024                       # Number of cycles decode is running
system.cpu1.decode.UnblockCycles              2049561                       # Number of cycles decode is unblocking
system.cpu1.decode.SquashCycles                  8992                       # Number of cycles decode is squashing
system.cpu1.decode.DecodedInsts              17416204                       # Number of instructions handled by decode
system.cpu1.rename.SquashCycles                  8992                       # Number of cycles rename is squashing
system.cpu1.rename.IdleCycles                 1031286                       # Number of cycles rename is idle
system.cpu1.rename.BlockCycles                4332225                       # Number of cycles rename is blocking
system.cpu1.rename.serializeStallCycles          3948                       # count of cycles rename stalled for serializing inst
system.cpu1.rename.RunCycles                   853276                       # Number of cycles rename is running
system.cpu1.rename.UnblockCycles              4191680                       # Number of cycles rename is unblocking
system.cpu1.rename.RenamedInsts              17373316                       # Number of instructions processed by rename
system.cpu1.rename.ROBFullEvents              2528389                       # Number of times rename has blocked due to ROB full
system.cpu1.rename.IQFullEvents                114890                       # Number of times rename has blocked due to IQ full
system.cpu1.rename.LQFullEvents                996234                       # Number of times rename has blocked due to LQ full
system.cpu1.rename.SQFullEvents                116174                       # Number of times rename has blocked due to SQ full
system.cpu1.rename.RenamedOperands           20520718                       # Number of destination operands rename has renamed
system.cpu1.rename.RenameLookups             36791880                       # Number of register rename lookups that rename has made
system.cpu1.rename.int_rename_lookups        18438317                       # Number of integer rename lookups
system.cpu1.rename.fp_rename_lookups            18059                       # Number of floating rename lookups
system.cpu1.rename.CommittedMaps             19989473                       # Number of HB maps that are committed
system.cpu1.rename.UndoneMaps                  531245                       # Number of HB maps that are undone due to squashing
system.cpu1.rename.serializingInsts                75                       # count of serializing insts renamed
system.cpu1.rename.tempSerializingInsts            78                       # count of temporary serializing insts renamed
system.cpu1.rename.skidInsts                 13413920                       # count of insts added to the skid buffer
system.cpu1.memDep0.insertedLoads             2941803                       # Number of loads inserted to the mem dependence unit.
system.cpu1.memDep0.insertedStores              70240                       # Number of stores inserted to the mem dependence unit.
system.cpu1.memDep0.conflictingLoads           157148                       # Number of conflicting loads.
system.cpu1.memDep0.conflictingStores           32027                       # Number of conflicting stores.
system.cpu1.iq.iqInstsAdded                  17294988                       # Number of instructions added to the IQ (excludes non-spec)
system.cpu1.iq.iqNonSpecInstsAdded                117                       # Number of non-speculative instructions added to the IQ
system.cpu1.iq.iqInstsIssued                 17367753                       # Number of instructions issued
system.cpu1.iq.iqSquashedInstsIssued             6977                       # Number of squashed instructions issued
system.cpu1.iq.iqSquashedInstsExamined         349911                       # Number of squashed instructions iterated over during squash; mainly for profiling
system.cpu1.iq.iqSquashedOperandsExamined       530049                       # Number of squashed operands that are examined and possibly removed from graph
system.cpu1.iq.iqSquashedNonSpecRemoved            75                       # Number of squashed non-spec instructions that were removed
system.cpu1.iq.issued_per_cycle::samples     10421417                       # Number of insts issued each cycle
[...]
system.ruby.L1Cache_Controller.Ack::total            3                      
system.ruby.L1Cache_Controller.Transient_Local_GETX |       25373     24.33%     24.33% |       23218     22.26%     46.59% |       24579     23.57%     70.16% |       16476     15.80%     85.96% |       14638     14.04%    100.00%
system.ruby.L1Cache_Controller.Transient_Local_GETX::total       104284                      
system.ruby.L1Cache_Controller.Transient_Local_GETS |       22733     21.64%     21.64% |       22780     21.69%     43.33% |       22787     21.69%     65.02% |       22775     21.68%     86.70% |       13966     13.30%    100.00%
system.ruby.L1Cache_Controller.Transient_Local_GETS::total       105041                      
system.ruby.L1Cache_Controller.Transient_Local_GETS_Last_Token |           0      0.00%      0.00% |           1     33.33%     33.33% |           0      0.00%     33.33% |           2     66.67%    100.00% |           0      0.00%    100.00%
system.ruby.L1Cache_Controller.Transient_Local_GETS_Last_Token::total            3                      
system.ruby.L1Cache_Controller.Persistent_GETX |         284     22.54%     22.54% |         250     19.84%     42.38% |         246     19.52%     61.90% |         165     13.10%     75.00% |         315     25.00%    100.00%
system.ruby.L1Cache_Controller.Persistent_GETX::total         1260                      
system.ruby.L1Cache_Controller.Persistent_GETS |         523     18.89%     18.89% |         502     18.14%     37.03% |         529     19.11%     56.14% |         522     18.86%     75.00% |         692     25.00%    100.00%
system.ruby.L1Cache_Controller.Persistent_GETS::total         2768                      
system.ruby.L1Cache_Controller.Own_Lock_or_Unlock |        1207     19.98%     19.98% |        1262     20.89%     40.86% |        1239     20.51%     61.37% |        1327     21.96%     83.33% |        1007     16.67%    100.00%
system.ruby.L1Cache_Controller.Own_Lock_or_Unlock::total         6042                      
system.ruby.L1Cache_Controller.Request_Timeout |        1416     25.29%     25.29% |        1431     25.56%     50.85% |        1449     25.88%     76.73% |        1303     23.27%    100.00% |           0      0.00%    100.00%
system.ruby.L1Cache_Controller.Request_Timeout::total         5599                      
system.ruby.L1Cache_Controller.Use_TimeoutNoStarvers |        3751      9.09%      9.09% |        5907     14.32%     23.41% |        4531     10.98%     34.39% |       12635     30.62%     65.01% |       14438     34.99%    100.00%
system.ruby.L1Cache_Controller.Use_TimeoutNoStarvers::total        41262                      
system.ruby.L1Cache_Controller.NP.Load   |        2304     10.77%     10.77% |        2279     10.65%     21.42% |        2255     10.54%     31.95% |        2267     10.59%     42.55% |       12295     57.45%    100.00%
system.ruby.L1Cache_Controller.NP.Load::total        21400                      
system.ruby.L1Cache_Controller.NP.Ifetch |        1219     25.12%     25.12% |        1200     24.73%     49.86% |        1219     25.12%     74.98% |        1214     25.02%    100.00% |           0      0.00%    100.00%
system.ruby.L1Cache_Controller.NP.Ifetch::total         4852                      
system.ruby.L1Cache_Controller.NP.Store  |         647      2.50%      2.50% |        2802     10.83%     13.33% |        1449      5.60%     18.93% |        9548     36.89%     55.82% |       11433     44.18%    100.00%
system.ruby.L1Cache_Controller.NP.Store::total        25879                      
system.ruby.L1Cache_Controller.NP.Transient_Local_GETX |       25373     24.85%     24.85% |       22198     21.74%     46.58% |       24473     23.96%     70.54% |       15456     15.13%     85.68% |       14625     14.32%    100.00%
system.ruby.L1Cache_Controller.NP.Transient_Local_GETX::total       102125                      
system.ruby.L1Cache_Controller.NP.Transient_Local_GETS |       22618     22.17%     22.17% |       21761     21.33%     43.50% |       21934     21.50%     65.00% |       21757     21.33%     86.32% |       13954     13.68%    100.00%
system.ruby.L1Cache_Controller.NP.Transient_Local_GETS::total       102024                      
system.ruby.L1Cache_Controller.NP.Own_Lock_or_Unlock |         807     20.03%     20.03% |         752     18.67%     38.70% |         775     19.24%     57.94% |         687     17.06%     75.00% |        1007     25.00%    100.00%
system.ruby.L1Cache_Controller.NP.Own_Lock_or_Unlock::total         4028                      
system.ruby.L1Cache_Controller.I.Load    |           5     55.56%     55.56% |           1     11.11%     66.67% |           0      0.00%     66.67% |           3     33.33%    100.00% |           0      0.00%    100.00%
system.ruby.L1Cache_Controller.I.Load::total            9                      
system.ruby.L1Cache_Controller.I.Store   |           3    100.00%    100.00% |           0      0.00%    100.00% |           0      0.00%    100.00% |           0      0.00%    100.00% |           0      0.00%    100.00%
system.ruby.L1Cache_Controller.I.Store::total            3                      
system.ruby.L1Cache_Controller.I.L1_Replacement |          10      4.55%      4.55% |          75     34.09%     38.64% |          41     18.64%     57.27% |          74     33.64%     90.91% |          20      9.09%    100.00%
system.ruby.L1Cache_Controller.I.L1_Replacement::total          220                      
system.ruby.L1Cache_Controller.I.Transient_Local_GETX |           0      0.00%      0.00% |        1019     47.55%     47.55% |         106      4.95%     52.50% |        1018     47.50%    100.00% |           0      0.00%    100.00%
system.ruby.L1Cache_Controller.I.Transient_Local_GETX::total         2143                      
system.ruby.L1Cache_Controller.S.Load    |     2328347     25.35%     25.35% |     1331604     14.50%     39.85% |     2769535     30.15%     70.00% |     2615938     28.48%     98.48% |      139322      1.52%    100.00%
system.ruby.L1Cache_Controller.S.Load::total      9184746                      
system.ruby.L1Cache_Controller.S.Ifetch  |     3219408     45.25%     45.25% |        1134      0.02%     45.26% |     3232639     45.43%     90.70% |      661891      9.30%    100.00% |           0      0.00%    100.00%
system.ruby.L1Cache_Controller.S.Ifetch::total      7115072                      
system.ruby.L1Cache_Controller.S.Store   |          48     25.40%     25.40% |          51     26.98%     52.38% |          43     22.75%     75.13% |          47     24.87%    100.00% |           0      0.00%    100.00%
system.ruby.L1Cache_Controller.S.Store::total          189                      
system.ruby.L1Cache_Controller.S.L1_Replacement |         240      2.31%      2.31% |         277      2.67%      4.99% |         264      2.55%      7.53% |         299      2.88%     10.41% |        9290     89.59%    100.00%
system.ruby.L1Cache_Controller.S.L1_Replacement::total        10370                      
system.ruby.L1Cache_Controller.S.Transient_Local_GETX |           0      0.00%      0.00% |           1     33.33%     33.33% |           0      0.00%     33.33% |           2     66.67%    100.00% |           0      0.00%    100.00%
system.ruby.L1Cache_Controller.S.Transient_Local_GETX::total            3                      
system.ruby.L1Cache_Controller.S.Transient_Local_GETS_Last_Token |           0      0.00%      0.00% |           1     33.33%     33.33% |           0      0.00%     33.33% |           2     66.67%    100.00% |           0      0.00%    100.00%
system.ruby.L1Cache_Controller.S.Transient_Local_GETS_Last_Token::total            3                      
system.ruby.L1Cache_Controller.M.Load    |       16680     15.85%     15.85% |       16228     15.42%     31.27% |       15431     14.66%     45.93% |       14888     14.15%     60.08% |       42017     39.92%    100.00%
system.ruby.L1Cache_Controller.M.Load::total       105244                      
system.ruby.L1Cache_Controller.M.Ifetch  |     1103035     25.03%     25.03% |     2734896     62.07%     87.11% |       66015      1.50%     88.60% |      502126     11.40%    100.00% |           0      0.00%    100.00%
system.ruby.L1Cache_Controller.M.Ifetch::total      4406072                      
system.ruby.L1Cache_Controller.M.Store   |          47      4.50%      4.50% |          46      4.41%      8.91% |          46      4.41%     13.31% |          43      4.12%     17.43% |         862     82.57%    100.00%
system.ruby.L1Cache_Controller.M.Store::total         1044                      
system.ruby.L1Cache_Controller.M.L1_Replacement |        1824     15.91%     15.91% |        2537     22.13%     38.04% |        2434     21.23%     59.28% |        2525     22.03%     81.31% |        2143     18.69%    100.00%
system.ruby.L1Cache_Controller.M.L1_Replacement::total        11463                      
system.ruby.L1Cache_Controller.M.Own_Lock_or_Unlock |         168     24.42%     24.42% |         188     27.33%     51.74% |         163     23.69%     75.44% |         169     24.56%    100.00% |           0      0.00%    100.00%
system.ruby.L1Cache_Controller.M.Own_Lock_or_Unlock::total          688                      
system.ruby.L1Cache_Controller.MM.Load   |      382708     22.61%     22.61% |      136799      8.08%     30.70% |      535633     31.65%     62.35% |      637142     37.65%    100.00% |           0      0.00%    100.00%
system.ruby.L1Cache_Controller.MM.Load::total      1692282                      
system.ruby.L1Cache_Controller.MM.Store  |      371190     26.28%     26.28% |       54859      3.88%     30.17% |      488668     34.60%     64.77% |      324550     22.98%     87.75% |      172942     12.25%    100.00%
system.ruby.L1Cache_Controller.MM.Store::total      1412209                      
system.ruby.L1Cache_Controller.MM.L1_Replacement |         568      2.48%      2.48% |        1867      8.14%     10.61% |         656      2.86%     13.47% |        8606     37.50%     50.97% |       11251     49.03%    100.00%
system.ruby.L1Cache_Controller.MM.L1_Replacement::total        22948                      
system.ruby.L1Cache_Controller.MM.Transient_Local_GETX |           0      0.00%      0.00% |           0      0.00%      0.00% |           0      0.00%      0.00% |           0      0.00%      0.00% |          13    100.00%    100.00%
system.ruby.L1Cache_Controller.MM.Transient_Local_GETX::total           13                      
system.ruby.L1Cache_Controller.MM.Transient_Local_GETS |         115      3.81%      3.81% |        1019     33.78%     37.59% |         853     28.27%     65.86% |        1018     33.74%     99.60% |          12      0.40%    100.00%
system.ruby.L1Cache_Controller.MM.Transient_Local_GETS::total         3017                      
system.ruby.L1Cache_Controller.MM.Own_Lock_or_Unlock |          32     10.03%     10.03% |          67     21.00%     31.03% |          69     21.63%     52.66% |         151     47.34%    100.00% |           0      0.00%    100.00%
system.ruby.L1Cache_Controller.MM.Own_Lock_or_Unlock::total          319                      
system.ruby.L1Cache_Controller.M_W.Load  |       11103     23.22%     23.22% |       11395     23.84%     47.06% |       11263     23.56%     70.62% |       11010     23.03%     93.65% |        3036      6.35%    100.00%
system.ruby.L1Cache_Controller.M_W.Load::total        47807                      
system.ruby.L1Cache_Controller.M_W.Ifetch |         423     25.09%     25.09% |         435     25.80%     50.89% |         419     24.85%     75.74% |         409     24.26%    100.00% |           0      0.00%    100.00%
system.ruby.L1Cache_Controller.M_W.Ifetch::total         1686                      
system.ruby.L1Cache_Controller.M_W.Store |          11     22.00%     22.00% |          13     26.00%     48.00% |          13     26.00%     74.00% |          13     26.00%    100.00% |           0      0.00%    100.00%
system.ruby.L1Cache_Controller.M_W.Store::total           50                      
system.ruby.L1Cache_Controller.M_W.Own_Lock_or_Unlock |          20     22.22%     22.22% |          20     22.22%     44.44% |          19     21.11%     65.56% |          31     34.44%    100.00% |           0      0.00%    100.00%
system.ruby.L1Cache_Controller.M_W.Own_Lock_or_Unlock::total           90                      
system.ruby.L1Cache_Controller.M_W.Use_TimeoutNoStarvers |        3042     20.09%     20.09% |        3041     20.08%     40.18% |        3026     19.99%     60.16% |        3027     19.99%     80.15% |        3005     19.85%    100.00%
system.ruby.L1Cache_Controller.M_W.Use_TimeoutNoStarvers::total        15141                      
system.ruby.L1Cache_Controller.MM_W.Load |          39     23.78%     23.78% |          36     21.95%     45.73% |          50     30.49%     76.22% |          39     23.78%    100.00% |           0      0.00%    100.00%
system.ruby.L1Cache_Controller.MM_W.Load::total          164                      
system.ruby.L1Cache_Controller.MM_W.Store |        2625      6.38%      6.38% |        6056     14.72%     21.10% |        3744      9.10%     30.20% |       17284     42.01%     72.21% |       11433     27.79%    100.00%
system.ruby.L1Cache_Controller.MM_W.Store::total        41142                      
system.ruby.L1Cache_Controller.MM_W.Own_Lock_or_Unlock |           6     14.29%     14.29% |          19     45.24%     59.52% |           5     11.90%     71.43% |          12     28.57%    100.00% |           0      0.00%    100.00%
system.ruby.L1Cache_Controller.MM_W.Own_Lock_or_Unlock::total           42                      
system.ruby.L1Cache_Controller.MM_W.Use_TimeoutNoStarvers |         709      2.71%      2.71% |        2866     10.97%     13.69% |        1505      5.76%     19.45% |        9608     36.78%     56.23% |       11433     43.77%    100.00%
system.ruby.L1Cache_Controller.MM_W.Use_TimeoutNoStarvers::total        26121                      
system.ruby.L1Cache_Controller.IM.Data_All_Tokens |         650      2.51%      2.51% |        2802     10.83%     13.34% |        1449      5.60%     18.94% |        9548     36.89%     55.83% |       11433     44.17%    100.00%
system.ruby.L1Cache_Controller.IM.Data_All_Tokens::total        25882                      
system.ruby.L1Cache_Controller.IM.Ack    |           0      0.00%      0.00% |           0      0.00%      0.00% |           0      0.00%      0.00% |           0      0.00%      0.00% |           3    100.00%    100.00%
system.ruby.L1Cache_Controller.IM.Ack::total            3                      
system.ruby.L1Cache_Controller.IM.Own_Lock_or_Unlock |          25      9.16%      9.16% |          46     16.85%     26.01% |          64     23.44%     49.45% |         138     50.55%    100.00% |           0      0.00%    100.00%
system.ruby.L1Cache_Controller.IM.Own_Lock_or_Unlock::total          273                      
system.ruby.L1Cache_Controller.IM.Request_Timeout |         241     33.85%     33.85% |          84     11.80%     45.65% |         176     24.72%     70.37% |         211     29.63%    100.00% |           0      0.00%    100.00%
system.ruby.L1Cache_Controller.IM.Request_Timeout::total          712                      
system.ruby.L1Cache_Controller.SM.Data_All_Tokens |          48     25.40%     25.40% |          51     26.98%     52.38% |          43     22.75%     75.13% |          47     24.87%    100.00% |           0      0.00%    100.00%
system.ruby.L1Cache_Controller.SM.Data_All_Tokens::total          189                      
system.ruby.L1Cache_Controller.IS.Data_Shared |         475      4.29%      4.29% |         426      3.85%      8.14% |         434      3.92%     12.06% |         444      4.01%     16.07% |        9290     83.93%    100.00%
system.ruby.L1Cache_Controller.IS.Data_Shared::total        11069                      
system.ruby.L1Cache_Controller.IS.Data_All_Tokens |        3053     20.10%     20.10% |        3054     20.10%     40.20% |        3040     20.01%     60.21% |        3040     20.01%     80.22% |        3005     19.78%    100.00%
system.ruby.L1Cache_Controller.IS.Data_All_Tokens::total        15192                      
system.ruby.L1Cache_Controller.IS.Own_Lock_or_Unlock |         149     24.75%     24.75% |         170     28.24%     52.99% |         144     23.92%     76.91% |         139     23.09%    100.00% |           0      0.00%    100.00%
system.ruby.L1Cache_Controller.IS.Own_Lock_or_Unlock::total          602                      
system.ruby.L1Cache_Controller.IS.Request_Timeout |        1175     24.04%     24.04% |        1347     27.56%     51.61% |        1273     26.05%     77.66% |        1092     22.34%    100.00% |           0      0.00%    100.00%
system.ruby.L1Cache_Controller.IS.Request_Timeout::total         4887                      
system.ruby.L1Cache_Controller.I_L.Persistent_GETX |         284     22.54%     22.54% |         250     19.84%     42.38% |         246     19.52%     61.90% |         165     13.10%     75.00% |         315     25.00%    100.00%
system.ruby.L1Cache_Controller.I_L.Persistent_GETX::total         1260                      
system.ruby.L1Cache_Controller.I_L.Persistent_GETS |         523     18.89%     18.89% |         502     18.14%     37.03% |         529     19.11%     56.14% |         522     18.86%     75.00% |         692     25.00%    100.00%
system.ruby.L1Cache_Controller.I_L.Persistent_GETS::total         2768                      
system.ruby.L2Cache_Controller.L1_GETS          26261      0.00%      0.00%
system.ruby.L2Cache_Controller.L1_GETX          26071      0.00%      0.00%
system.ruby.L2Cache_Controller.L1_INV            3033      0.00%      0.00%
system.ruby.L2Cache_Controller.L2_Replacement           95      0.00%      0.00%
system.ruby.L2Cache_Controller.Writeback_Shared_Data            3      0.00%      0.00%
system.ruby.L2Cache_Controller.Writeback_All_Tokens        44778      0.00%      0.00%
system.ruby.L2Cache_Controller.Persistent_GETX          315      0.00%      0.00%
system.ruby.L2Cache_Controller.Persistent_GETS          692      0.00%      0.00%
system.ruby.L2Cache_Controller.Own_Lock_or_Unlock         1007      0.00%      0.00%
system.ruby.L2Cache_Controller.NP.L1_GETS        15029      0.00%      0.00%
system.ruby.L2Cache_Controller.NP.L1_GETX        14130      0.00%      0.00%
system.ruby.L2Cache_Controller.NP.L1_INV         2854      0.00%      0.00%
system.ruby.L2Cache_Controller.NP.Writeback_All_Tokens        22897      0.00%      0.00%
system.ruby.L2Cache_Controller.NP.Own_Lock_or_Unlock         1007      0.00%      0.00%
system.ruby.L2Cache_Controller.I.L1_GETS          163      0.00%      0.00%
system.ruby.L2Cache_Controller.I.L1_GETX           13      0.00%      0.00%
system.ruby.L2Cache_Controller.I.L1_INV           179      0.00%      0.00%
system.ruby.L2Cache_Controller.I.Writeback_All_Tokens        11514      0.00%      0.00%
system.ruby.L2Cache_Controller.O.L1_GETS            3      0.00%      0.00%
system.ruby.L2Cache_Controller.O.L1_GETX          192      0.00%      0.00%
system.ruby.L2Cache_Controller.O.Writeback_Shared_Data            3      0.00%      0.00%
system.ruby.L2Cache_Controller.O.Writeback_All_Tokens        10367      0.00%      0.00%
system.ruby.L2Cache_Controller.M.L1_GETS        11066      0.00%      0.00%
system.ruby.L2Cache_Controller.M.L1_GETX        11736      0.00%      0.00%
system.ruby.L2Cache_Controller.M.L2_Replacement           95      0.00%      0.00%
system.ruby.L2Cache_Controller.I_L.Persistent_GETX          315      0.00%      0.00%
system.ruby.L2Cache_Controller.I_L.Persistent_GETS          692      0.00%      0.00%

---------- End Simulation Statistics   ----------
