
---------- Begin Simulation Statistics ----------
sim_seconds                                  0.006145                       # Number of seconds simulated
sim_ticks                                  6145377500                       # Number of ticks simulated
final_tick                                 6145377500                       # Number of ticks from beginning of simulation (restored from checkpoints and never reset)
sim_freq                                 1000000000000                       # Frequency of simulated ticks
host_inst_rate                                  44086                       # Simulator instruction rate (inst/s)
host_op_rate                                    87197                       # Simulator op (including micro ops) rate (op/s)
host_tick_rate                               17711962                       # Simulator tick rate (ticks/s)
host_mem_usage                                 850496                       # Number of bytes of host memory used
host_seconds                                   346.96                       # Real time elapsed on the host
sim_insts                                    15296198                       # Number of instructions simulated
sim_ops                                      30254083                       # Number of ops (including micro ops) simulated
system.voltage_domain.voltage                       1                       # Voltage in Volts
system.clk_domain.clock                          1000                       # Clock period in ticks
system.mem_ctrls.pwrStateResidencyTicks::UNDEFINED   6145377500                       # Cumulative time (in ticks) in various power states
system.mem_ctrls.bytes_read::ruby.dir_cntrl0      1028352                       # Number of bytes read from this memory
system.mem_ctrls.bytes_read::total            1028352                       # Number of bytes read from this memory
system.mem_ctrls.num_reads::ruby.dir_cntrl0        16068                       # Number of read requests responded to by this memory
system.mem_ctrls.num_reads::total               16068                       # Number of read requests responded to by this memory
system.mem_ctrls.bw_read::ruby.dir_cntrl0    167337483                       # Total read bandwidth from this memory (bytes/s)
system.mem_ctrls.bw_read::total             167337483                       # Total read bandwidth from this memory (bytes/s)
system.mem_ctrls.bw_total::ruby.dir_cntrl0    167337483                       # Total bandwidth to/from this memory (bytes/s)
system.mem_ctrls.bw_total::total            167337483                       # Total bandwidth to/from this memory (bytes/s)
system.mem_ctrls.readReqs                       16068                       # Number of read requests accepted
system.mem_ctrls.avgNetLat                       0.00                       # Average network latency to DRAM controller
system.mem_ctrls.writeReqs                          0                       # Number of write requests accepted
system.mem_ctrls.readBursts                     16068                       # Number of DRAM read bursts, including those serviced by the write queue
system.mem_ctrls.writeBursts                        0                       # Number of DRAM write bursts, including those merged in the write queue
system.mem_ctrls.bytesReadDRAM                1028352                       # Total number of bytes read from DRAM
system.mem_ctrls.bytesReadWrQ                       0                       # Total number of bytes read from write queue
system.mem_ctrls.bytesWritten                       0                       # Total number of bytes written to DRAM
system.mem_ctrls.bytesReadSys                 1028352                       # Total read bytes from the system interface side
system.mem_ctrls.bytesWrittenSys                    0                       # Total written bytes from the system interface side
system.mem_ctrls.servicedByWrQ                      0                       # Number of DRAM read bursts serviced by the write queue
system.mem_ctrls.mergedWrBursts                     0                       # Number of DRAM write bursts merged with an existing one
system.mem_ctrls.neitherReadNorWriteReqs            0                       # Number of requests that are neither read nor write
system.mem_ctrls.perBankRdBursts::0              1128                       # Per bank write bursts
system.mem_ctrls.perBankRdBursts::1              1061                       # Per bank write bursts
system.mem_ctrls.perBankRdBursts::2               962                       # Per bank write bursts
system.mem_ctrls.perBankRdBursts::3               808                       # Per bank write bursts
system.mem_ctrls.perBankRdBursts::4               768                       # Per bank write bursts
system.mem_ctrls.perBankRdBursts::5               982                       # Per bank write bursts
system.mem_ctrls.perBankRdBursts::6              1104                       # Per bank write bursts
system.mem_ctrls.perBankRdBursts::7              1137                       # Per bank write bursts
system.mem_ctrls.perBankRdBursts::8              1074                       # Per bank write bursts
system.mem_ctrls.perBankRdBursts::9               981                       # Per bank write bursts
system.mem_ctrls.perBankRdBursts::10              894                       # Per bank write bursts
system.mem_ctrls.perBankRdBursts::11              852                       # Per bank write bursts
system.mem_ctrls.perBankRdBursts::12              934                       # Per bank write bursts
system.mem_ctrls.perBankRdBursts::13             1091                       # Per bank write bursts
system.mem_ctrls.perBankRdBursts::14             1152                       # Per bank write bursts
system.mem_ctrls.perBankRdBursts::15             1140                       # Per bank write bursts
system.mem_ctrls.perBankWrBursts::0                 0                       # Per bank write bursts
system.mem_ctrls.perBankWrBursts::1                 0                       # Per bank write bursts
system.mem_ctrls.perBankWrBursts::2                 0                       # Per bank write bursts
system.mem_ctrls.perBankWrBursts::3                 0                       # Per bank write bursts
system.mem_ctrls.perBankWrBursts::4                 0                       # Per bank write bursts
system.mem_ctrls.perBankWrBursts::5                 0                       # Per bank write bursts
system.mem_ctrls.perBankWrBursts::6                 0                       # Per bank write bursts
system.mem_ctrls.perBankWrBursts::7                 0                       # Per bank write bursts
system.mem_ctrls.perBankWrBursts::8                 0                       # Per bank write bursts
system.mem_ctrls.perBankWrBursts::9                 0                       # Per bank write bursts
system.mem_ctrls.perBankWrBursts::10                0                       # Per bank write bursts
system.mem_ctrls.perBankWrBursts::11                0                       # Per bank write bursts
system.mem_ctrls.perBankWrBursts::12                0                       # Per bank write bursts
system.mem_ctrls.perBankWrBursts::13                0                       # Per bank write bursts
system.mem_ctrls.perBankWrBursts::14                0                       # Per bank write bursts
system.mem_ctrls.perBankWrBursts::15                0                       # Per bank write bursts
system.mem_ctrls.numRdRetry                         0                       # Number of times read queue was full causing retry
system.mem_ctrls.numWrRetry                         0                       # Number of times write queue was full causing retry
system.mem_ctrls.totGap                    6145312000                       # Total gap between requests
system.mem_ctrls.readPktSize::0                     0                       # Read request sizes (log2)
system.mem_ctrls.readPktSize::1                     0                       # Read request sizes (log2)
system.mem_ctrls.readPktSize::2                     0                       # Read request sizes (log2)
system.mem_ctrls.readPktSize::3                     0                       # Read request sizes (log2)
system.mem_ctrls.readPktSize::4                     0                       # Read request sizes (log2)
system.mem_ctrls.readPktSize::5                     0                       # Read request sizes (log2)
system.mem_ctrls.readPktSize::6                 16068                       # Read request sizes (log2)
system.mem_ctrls.writePktSize::0                    0                       # Write request sizes (log2)
system.mem_ctrls.writePktSize::1                    0                       # Write request sizes (log2)
system.mem_ctrls.writePktSize::2                    0                       # Write request sizes (log2)
system.mem_ctrls.writePktSize::3                    0                       # Write request sizes (log2)
system.mem_ctrls.writePktSize::4                    0                       # Write request sizes (log2)
system.mem_ctrls.writePktSize::5                    0                       # Write request sizes (log2)
system.mem_ctrls.writePktSize::6                    0                       # Write request sizes (log2)
system.mem_ctrls.rdQLenPdf::0                    3610                       # What read queue length does an incoming req see
system.mem_ctrls.rdQLenPdf::1                    2844                       # What read queue length does an incoming req see
system.mem_ctrls.rdQLenPdf::2                    2528                       # What read queue length does an incoming req see
system.mem_ctrls.rdQLenPdf::3                    1870                       # What read queue length does an incoming req see
system.mem_ctrls.rdQLenPdf::4                    1409                       # What read queue length does an incoming req see
system.mem_ctrls.rdQLenPdf::5                     977                       # What read queue length does an incoming req see
system.mem_ctrls.rdQLenPdf::6                     872                       # What read queue length does an incoming req see
system.mem_ctrls.rdQLenPdf::7                     759                       # What read queue length does an incoming req see
system.mem_ctrls.rdQLenPdf::8                     518                       # What read queue length does an incoming req see
system.mem_ctrls.rdQLenPdf::9                     284                       # What read queue length does an incoming req see
system.mem_ctrls.rdQLenPdf::10                    201                       # What read queue length does an incoming req see
system.mem_ctrls.rdQLenPdf::11                    114                       # What read queue length does an incoming req see
system.mem_ctrls.rdQLenPdf::12                     48                       # What read queue length does an incoming req see
system.mem_ctrls.rdQLenPdf::13                     18                       # What read queue length does an incoming req see
system.mem_ctrls.rdQLenPdf::14                      5                       # What read queue length does an incoming req see
system.mem_ctrls.rdQLenPdf::15                      2                       # What read queue length does an incoming req see
system.mem_ctrls.rdQLenPdf::16                      3                       # What read queue length does an incoming req see
system.mem_ctrls.rdQLenPdf::17                      3                       # What read queue length does an incoming req see
system.mem_ctrls.rdQLenPdf::18                      2                       # What read queue length does an incoming req see
system.mem_ctrls.rdQLenPdf::19                      1                       # What read queue length does an incoming req see
system.mem_ctrls.rdQLenPdf::20                      0                       # What read queue length does an incoming req see
system.mem_ctrls.rdQLenPdf::21                      0                       # What read queue length does an incoming req see
system.mem_ctrls.rdQLenPdf::22                      0                       # What read queue length does an incoming req see
system.mem_ctrls.rdQLenPdf::23                      0                       # What read queue length does an incoming req see
system.mem_ctrls.rdQLenPdf::24                      0                       # What read queue length does an incoming req see
system.mem_ctrls.rdQLenPdf::25                      0                       # What read queue length does an incoming req see
system.mem_ctrls.rdQLenPdf::26                      0                       # What read queue length does an incoming req see
system.mem_ctrls.rdQLenPdf::27                      0                       # What read queue length does an incoming req see
system.mem_ctrls.rdQLenPdf::28                      0                       # What read queue length does an incoming req see
system.mem_ctrls.rdQLenPdf::29                      0                       # What read queue length does an incoming req see
system.mem_ctrls.rdQLenPdf::30                      0                       # What read queue length does an incoming req see
system.mem_ctrls.rdQLenPdf::31                      0                       # What read queue length does an incoming req see
system.mem_ctrls.wrQLenPdf::0                       0                       # What write queue length does an incoming req see
system.mem_ctrls.wrQLenPdf::1                       0                       # What write queue length does an incoming req see
system.mem_ctrls.wrQLenPdf::2                       0                       # What write queue length does an incoming req see
system.mem_ctrls.wrQLenPdf::3                       0                       # What write queue length does an incoming req see
system.mem_ctrls.wrQLenPdf::4                       0                       # What write queue length does an incoming req see
system.mem_ctrls.wrQLenPdf::5                       0                       # What write queue length does an incoming req see
system.mem_ctrls.wrQLenPdf::6                       0                       # What write queue length does an incoming req see
system.mem_ctrls.wrQLenPdf::7                       0                       # What write queue length does an incoming req see
system.mem_ctrls.wrQLenPdf::8                       0                       # What write queue length does an incoming req see
system.mem_ctrls.wrQLenPdf::9                       0                       # What write queue length does an incoming req see
system.mem_ctrls.wrQLenPdf::10                      0                       # What write queue length does an incoming req see
system.mem_ctrls.wrQLenPdf::11                      0                       # What write queue length does an incoming req see
system.mem_ctrls.wrQLenPdf::12                      0                       # What write queue length does an incoming req see
system.mem_ctrls.wrQLenPdf::13                      0                       # What write queue length does an incoming req see
system.mem_ctrls.wrQLenPdf::14                      0                       # What write queue length does an incoming req see
system.mem_ctrls.wrQLenPdf::15                      0                       # What write queue length does an incoming req see
system.mem_ctrls.wrQLenPdf::16                      0                       # What write queue length does an incoming req see
system.mem_ctrls.wrQLenPdf::17                      0                       # What write queue length does an incoming req see
system.mem_ctrls.wrQLenPdf::18                      0                       # What write queue length does an incoming req see
system.mem_ctrls.wrQLenPdf::19                      0                       # What write queue length does an incoming req see
system.mem_ctrls.wrQLenPdf::20                      0                       # What write queue length does an incoming req see
system.mem_ctrls.wrQLenPdf::21                      0                       # What write queue length does an incoming req see
system.mem_ctrls.wrQLenPdf::22                      0                       # What write queue length does an incoming req see
system.mem_ctrls.wrQLenPdf::23                      0                       # What write queue length does an incoming req see
system.mem_ctrls.wrQLenPdf::24                      0                       # What write queue length does an incoming req see
system.mem_ctrls.wrQLenPdf::25                      0                       # What write queue length does an incoming req see
system.mem_ctrls.wrQLenPdf::26                      0                       # What write queue length does an incoming req see
system.mem_ctrls.wrQLenPdf::27                      0                       # What write queue length does an incoming req see
system.mem_ctrls.wrQLenPdf::28                      0                       # What write queue length does an incoming req see
system.mem_ctrls.wrQLenPdf::29                      0                       # What write queue length does an incoming req see
system.mem_ctrls.wrQLenPdf::30                      0                       # What write queue length does an incoming req see
system.mem_ctrls.wrQLenPdf::31                      0                       # What write queue length does an incoming req see
system.mem_ctrls.wrQLenPdf::32                      0                       # What write queue length does an incoming req see
system.mem_ctrls.wrQLenPdf::33                      0                       # What write queue length does an incoming req see
system.mem_ctrls.wrQLenPdf::34                      0                       # What write queue length does an incoming req see
system.mem_ctrls.wrQLenPdf::35                      0                       # What write queue length does an incoming req see
system.mem_ctrls.wrQLenPdf::36                      0                       # What write queue length does an incoming req see
system.mem_ctrls.wrQLenPdf::37                      0                       # What write queue length does an incoming req see
system.mem_ctrls.wrQLenPdf::38                      0                       # What write queue length does an incoming req see
system.mem_ctrls.wrQLenPdf::39                      0                       # What write queue length does an incoming req see
system.mem_ctrls.wrQLenPdf::40                      0                       # What write queue length does an incoming req see
system.mem_ctrls.wrQLenPdf::41                      0                       # What write queue length does an incoming req see
system.mem_ctrls.wrQLenPdf::42                      0                       # What write queue length does an incoming req see
system.mem_ctrls.wrQLenPdf::43                      0                       # What write queue length does an incoming req see
system.mem_ctrls.wrQLenPdf::44                      0                       # What write queue length does an incoming req see
system.mem_ctrls.wrQLenPdf::45                      0                       # What write queue length does an incoming req see
system.mem_ctrls.wrQLenPdf::46                      0                       # What write queue length does an incoming req see
system.mem_ctrls.wrQLenPdf::47                      0                       # What write queue length does an incoming req see
system.mem_ctrls.wrQLenPdf::48                      0                       # What write queue length does an incoming req see
system.mem_ctrls.wrQLenPdf::49                      0                       # What write queue length does an incoming req see
system.mem_ctrls.wrQLenPdf::50                      0                       # What write queue length does an incoming req see
system.mem_ctrls.wrQLenPdf::51                      0                       # What write queue length does an incoming req see
system.mem_ctrls.wrQLenPdf::52                      0                       # What write queue length does an incoming req see
system.mem_ctrls.wrQLenPdf::53                      0                       # What write queue length does an incoming req see
system.mem_ctrls.wrQLenPdf::54                      0                       # What write queue length does an incoming req see
system.mem_ctrls.wrQLenPdf::55                      0                       # What write queue length does an incoming req see
system.mem_ctrls.wrQLenPdf::56                      0                       # What write queue length does an incoming req see
system.mem_ctrls.wrQLenPdf::57                      0                       # What write queue length does an incoming req see
system.mem_ctrls.wrQLenPdf::58                      0                       # What write queue length does an incoming req see
system.mem_ctrls.wrQLenPdf::59                      0                       # What write queue length does an incoming req see
system.mem_ctrls.wrQLenPdf::60                      0                       # What write queue length does an incoming req see
system.mem_ctrls.wrQLenPdf::61                      0                       # What write queue length does an incoming req see
system.mem_ctrls.wrQLenPdf::62                      0                       # What write queue length does an incoming req see
system.mem_ctrls.wrQLenPdf::63                      0                       # What write queue length does an incoming req see
system.mem_ctrls.bytesPerActivate::samples         4532                       # Bytes accessed per row activation
system.mem_ctrls.bytesPerActivate::mean    226.584289                       # Bytes accessed per row activation
system.mem_ctrls.bytesPerActivate::gmean   132.885359                       # Bytes accessed per row activation
system.mem_ctrls.bytesPerActivate::stdev   286.402373                       # Bytes accessed per row activation
system.mem_ctrls.bytesPerActivate::0-127         2348     51.81%     51.81% # Bytes accessed per row activation
system.mem_ctrls.bytesPerActivate::128-255         1108     24.45%     76.26% # Bytes accessed per row activation
system.mem_ctrls.bytesPerActivate::256-383          283      6.24%     82.50% # Bytes accessed per row activation
system.mem_ctrls.bytesPerActivate::384-511          138      3.05%     85.55% # Bytes accessed per row activation
system.mem_ctrls.bytesPerActivate::512-639          117      2.58%     88.13% # Bytes accessed per row activation
system.mem_ctrls.bytesPerActivate::640-767           82      1.81%     89.94% # Bytes accessed per row activation
system.mem_ctrls.bytesPerActivate::768-895           54      1.19%     91.13% # Bytes accessed per row activation
system.mem_ctrls.bytesPerActivate::896-1023           31      0.68%     91.81% # Bytes accessed per row activation
system.mem_ctrls.bytesPerActivate::1024-1151          371      8.19%    100.00% # Bytes accessed per row activation
system.mem_ctrls.bytesPerActivate::total         4532                       # Bytes accessed per row activation
system.mem_ctrls.totQLat                    438512886                       # Total ticks spent queuing
system.mem_ctrls.totMemAccLat               739787886                       # Total ticks spent from burst creation until serviced by the DRAM
system.mem_ctrls.totBusLat                   80340000                       # Total ticks spent in databus transfers
system.mem_ctrls.avgQLat                     27291.07                       # Average queueing delay per DRAM burst
system.mem_ctrls.avgBusLat                    5000.00                       # Average bus latency per DRAM burst
system.mem_ctrls.avgMemAccLat                46041.07                       # Average memory access latency per DRAM burst
system.mem_ctrls.avgRdBW                       167.34                       # Average DRAM read bandwidth in MiByte/s
system.mem_ctrls.avgWrBW                         0.00                       # Average achieved write bandwidth in MiByte/s
system.mem_ctrls.avgRdBWSys                    167.34                       # Average system read bandwidth in MiByte/s
system.mem_ctrls.avgWrBWSys                      0.00                       # Average system write bandwidth in MiByte/s
system.mem_ctrls.peakBW                      12800.00                       # Theoretical peak bandwidth in MiByte/s
system.mem_ctrls.busUtil                         1.31                       # Data bus utilization in percentage
system.mem_ctrls.busUtilRead                     1.31                       # Data bus utilization in percentage for reads
system.mem_ctrls.busUtilWrite                    0.00                       # Data bus utilization in percentage for writes
system.mem_ctrls.avgRdQLen                       1.12                       # Average read queue length when enqueuing
system.mem_ctrls.avgWrQLen                       0.00                       # Average write queue length when enqueuing
system.mem_ctrls.readRowHits                    11526                       # Number of row buffer hits during reads
system.mem_ctrls.writeRowHits                       0                       # Number of row buffer hits during writes
system.mem_ctrls.readRowHitRate                 71.73                       # Row buffer hit rate for reads
system.mem_ctrls.writeRowHitRate                  nan                       # Row buffer hit rate for writes
system.mem_ctrls.avgGap                     382456.56                       # Average gap between requests
system.mem_ctrls.pageHitRate                    71.73                       # Row buffer hit rate, read and write combined
system.mem_ctrls_0.actEnergy                 16507680                       # Energy for activate commands per rank (pJ)
system.mem_ctrls_0.preEnergy                  8751270                       # Energy for precharge commands per rank (pJ)
system.mem_ctrls_0.readEnergy                56763000                       # Energy for read commands per rank (pJ)
system.mem_ctrls_0.writeEnergy                      0                       # Energy for write commands per rank (pJ)
system.mem_ctrls_0.refreshEnergy         33805200.000000                       # Energy for refresh commands per rank (pJ)
system.mem_ctrls_0.actBackEnergy             86677050                       # Energy for active background per rank (pJ)
system.mem_ctrls_0.preBackEnergy              1411680                       # Energy for precharge background per rank (pJ)
system.mem_ctrls_0.actPowerDownEnergy        73528290                       # Energy for active power-down per rank (pJ)
system.mem_ctrls_0.prePowerDownEnergy        15480960                       # Energy for precharge power-down per rank (pJ)
system.mem_ctrls_0.selfRefreshEnergy       1382775300                       # Energy for self refresh per rank (pJ)
system.mem_ctrls_0.totalEnergy             1675700430                       # Total energy per rank (pJ)
system.mem_ctrls_0.averagePower            272.676565                       # Core power per rank (mW)
system.mem_ctrls_0.totalIdleTime           5951459778                       # Total Idle time Per DRAM Rank
system.mem_ctrls_0.memoryStateTime::IDLE      1688750                       # Time in different power states
system.mem_ctrls_0.memoryStateTime::REF      14330000                       # Time in different power states
system.mem_ctrls_0.memoryStateTime::SREF   5750059500                       # Time in different power states
system.mem_ctrls_0.memoryStateTime::PRE_PDN     40312250                       # Time in different power states
system.mem_ctrls_0.memoryStateTime::ACT     177747722                       # Time in different power states
system.mem_ctrls_0.memoryStateTime::ACT_PDN    161239278                       # Time in different power states
system.mem_ctrls_1.actEnergy                 15922200                       # Energy for activate commands per rank (pJ)
system.mem_ctrls_1.preEnergy                  8447670                       # Energy for precharge commands per rank (pJ)
system.mem_ctrls_1.readEnergy                57962520                       # Energy for read commands per rank (pJ)
system.mem_ctrls_1.writeEnergy                      0                       # Energy for write commands per rank (pJ)
system.mem_ctrls_1.refreshEnergy         39951600.000000                       # Energy for refresh commands per rank (pJ)
system.mem_ctrls_1.actBackEnergy             85823760                       # Energy for active background per rank (pJ)
system.mem_ctrls_1.preBackEnergy              1552800                       # Energy for precharge background per rank (pJ)
system.mem_ctrls_1.actPowerDownEnergy       105616440                       # Energy for active power-down per rank (pJ)
system.mem_ctrls_1.prePowerDownEnergy        16534080                       # Energy for precharge power-down per rank (pJ)
system.mem_ctrls_1.selfRefreshEnergy       1366141740                       # Energy for self refresh per rank (pJ)
system.mem_ctrls_1.totalEnergy             1697952810                       # Total energy per rank (pJ)
system.mem_ctrls_1.averagePower            276.297560                       # Core power per rank (mW)
system.mem_ctrls_1.totalIdleTime           5953155780                       # Total Idle time Per DRAM Rank
system.mem_ctrls_1.memoryStateTime::IDLE      1976001                       # Time in different power states
system.mem_ctrls_1.memoryStateTime::REF      16936000                       # Time in different power states
system.mem_ctrls_1.memoryStateTime::SREF   5678449250                       # Time in different power states
system.mem_ctrls_1.memoryStateTime::PRE_PDN     43055500                       # Time in different power states
system.mem_ctrls_1.memoryStateTime::ACT     173279469                       # Time in different power states
system.mem_ctrls_1.memoryStateTime::ACT_PDN    231681280                       # Time in different power states
system.pwrStateResidencyTicks::UNDEFINED   6145377500                       # Cumulative time (in ticks) in various power states
system.cpu0.branchPred.lookups                 893664                       # Number of BP lookups
system.cpu0.branchPred.condPredicted           893664                       # Number of conditional branches predicted
system.cpu0.branchPred.condIncorrect             8435                       # Number of conditional branches incorrect
system.cpu0.branchPred.BTBLookups              550224                       # Number of BTB lookups
system.cpu0.branchPred.BTBHits                      0                       # Number of BTB hits
system.cpu0.branchPred.BTBCorrect                   0                       # Number of correct BTB predictions (this stat may not work properly.
system.cpu0.branchPred.BTBHitPct             0.000000                       # BTB Hit Percentage
system.cpu0.branchPred.usedRAS                   2325                       # Number of times the RAS was used to get a target.
system.cpu0.branchPred.RASInCorrect               460                       # Number of incorrect RAS predictions.
system.cpu0.branchPred.indirectLookups         550224                       # Number of indirect predictor lookups.
system.cpu0.branchPred.indirectHits            426599                       # Number of indirect target hits.
system.cpu0.branchPred.indirectMisses          123625                       # Number of indirect misses.
system.cpu0.branchPredindirectMispredicted         4470                       # Number of mispredicted indirect branches.
system.cpu_voltage_domain.voltage                   1                       # Voltage in Volts
system.cpu0.clk_domain.clock                      500                       # Clock period in ticks
system.cpu0.dtb.walker.pwrStateResidencyTicks::UNDEFINED   6145377500                       # Cumulative time (in ticks) in various power states
system.cpu0.apic_clk_domain.clock                8000                       # Clock period in ticks
system.cpu0.interrupts.pwrStateResidencyTicks::UNDEFINED   6145377500                       # Cumulative time (in ticks) in various power states
system.cpu0.itb.walker.pwrStateResidencyTicks::UNDEFINED   6145377500                       # Cumulative time (in ticks) in various power states
system.cpu0.workload.num_syscalls                  40                       # Number of system calls
system.cpu0.pwrStateResidencyTicks::ON     6145377500                       # Cumulative time (in ticks) in various power states
system.cpu0.numCycles                         3367316                       # number of cpu cycles simulated
system.cpu0.numWorkItemsStarted                     0                       # number of work items this cpu started
system.cpu0.numWorkItemsCompleted                   0                       # number of work items this cpu completed
system.cpu0.fetch.icacheStallCycles            875613                       # Number of cycles fetch is stalled on an Icache miss
system.cpu0.fetch.Insts                       2819797                       # Number of instructions fetch has processed
system.cpu0.fetch.Branches                     893664                       # Number of branches that fetch encountered
system.cpu0.fetch.predictedBranches            428924                       # Number of branches that fetch has predicted taken
system.cpu0.fetch.Cycles                      2379221                       # Number of cycles fetch has run and was not squashing or blocked
system.cpu0.fetch.SquashCycles                  17077                       # Number of cycles fetch has spent squashing
system.cpu0.fetch.MiscStallCycles               10115                       # Number of cycles fetch has spent waiting on interrupts, or bad addresses, or out of MSHRs
system.cpu0.fetch.NoActiveThreadStallCycles           10                       # Number of stall cycles due to no active thread to fetch from
system.cpu0.fetch.PendingTrapStallCycles          770                       # Number of stall cycles due to pending traps
system.cpu0.fetch.PendingQuiesceStallCycles           15                       # Number of stall cycles due to pending quiesce instructions
system.cpu0.fetch.IcacheWaitRetryStallCycles         6352                       # Number of stall cycles due to full MSHR
system.cpu0.fetch.CacheLines                   847787                       # Number of cache lines fetched
system.cpu0.fetch.IcacheSquashes                 2512                       # Number of outstanding Icache misses that were squashed
system.cpu0.fetch.rateDist::samples           3280634                       # Number of instructions fetched each cycle (Total)
system.cpu0.fetch.rateDist::mean             1.703044                       # Number of instructions fetched each cycle (Total)
system.cpu0.fetch.rateDist::stdev            2.933891                       # Number of instructions fetched each cycle (Total)
system.cpu0.fetch.rateDist::underflows              0      0.00%      0.00% # Number of instructions fetched each cycle (Total)
system.cpu0.fetch.rateDist::0                 2359515     71.92%     71.92% # Number of instructions fetched each cycle (Total)
system.cpu0.fetch.rateDist::1                    8057      0.25%     72.17% # Number of instructions fetched each cycle (Total)
system.cpu0.fetch.rateDist::2                    3429      0.10%     72.27% # Number of instructions fetched each cycle (Total)
system.cpu0.fetch.rateDist::3                    8213      0.25%     72.52% # Number of instructions fetched each cycle (Total)
system.cpu0.fetch.rateDist::4                  405351     12.36%     84.88% # Number of instructions fetched each cycle (Total)
system.cpu0.fetch.rateDist::5                    8067      0.25%     85.12% # Number of instructions fetched each cycle (Total)
system.cpu0.fetch.rateDist::6                    6180      0.19%     85.31% # Number of instructions fetched each cycle (Total)
system.cpu0.fetch.rateDist::7                    5886      0.18%     85.49% # Number of instructions fetched each cycle (Total)
system.cpu0.fetch.rateDist::8                  475936     14.51%    100.00% # Number of instructions fetched each cycle (Total)
system.cpu0.fetch.rateDist::overflows               0      0.00%    100.00% # Number of instructions fetched each cycle (Total)
system.cpu0.fetch.rateDist::min_value               0                       # Number of instructions fetched each cycle (Total)
system.cpu0.fetch.rateDist::max_value               8                       # Number of instructions fetched each cycle (Total)
system.cpu0.fetch.rateDist::total             3280634                       # Number of instructions fetched each cycle (Total)
system.cpu0.fetch.branchRate                 0.265394                       # Number of branch fetches per cycle
system.cpu0.fetch.rate                       0.837402                       # Number of inst fetches per cycle
system.cpu0.decode.IdleCycles                  276956                       # Number of cycles decode is idle
system.cpu0.decode.BlockedCycles              2296275                       # Number of cycles decode is blocked
system.cpu0.decode.RunCycles                    86585                       # Number of cycles decode is running
system.cpu0.decode.UnblockCycles               612270                       # Number of cycles decode is unblocking
system.cpu0.decode.SquashCycles                  8538                       # Number of cycles decode is squashing
system.cpu0.decode.DecodedInsts               5505179                       # Number of instructions handled by decode
system.cpu0.rename.SquashCycles                  8538                       # Number of cycles rename is squashing
system.cpu0.rename.IdleCycles                  310575                       # Number of cycles rename is idle
system.cpu0.rename.BlockCycles                1421575                       # Number of cycles rename is blocking
system.cpu0.rename.serializeStallCycles          3221                       # count of cycles rename stalled for serializing inst
system.cpu0.rename.RunCycles                   289428                       # Number of cycles rename is running
system.cpu0.rename.UnblockCycles              1247287                       # Number of cycles rename is unblocking
system.cpu0.rename.RenamedInsts               5464562                       # Number of instructions processed by rename
system.cpu0.rename.ROBFullEvents               776773                       # Number of times rename has blocked due to ROB full
system.cpu0.rename.IQFullEvents                 12562                       # Number of times rename has blocked due to IQ full
system.cpu0.rename.LQFullEvents                264267                       # Number of times rename has blocked due to LQ full
system.cpu0.rename.SQFullEvents                 31413                       # Number of times rename has blocked due to SQ full
system.cpu0.rename.RenamedOperands            6427693                       # Number of destination operands rename has renamed
system.cpu0.rename.RenameLookups             11701889                       # Number of register rename lookups that rename has made
system.cpu0.rename.int_rename_lookups         5778901                       # Number of integer rename lookups
system.cpu0.rename.fp_rename_lookups            18380                       # Number of floating rename lookups
system.cpu0.rename.CommittedMaps              5936167                       # Number of HB maps that are committed
system.cpu0.rename.UndoneMaps                  491526                       # Number of HB maps that are undone due to squashing
system.cpu0.rename.serializingInsts                82                       # count of serializing insts renamed
system.cpu0.rename.tempSerializingInsts            82                       # count of temporary serializing insts renamed
system.cpu0.rename.skidInsts                  4045373                       # count of insts added to the skid buffer
system.cpu0.memDep0.insertedLoads              881126                       # Number of loads inserted to the mem dependence unit.
system.cpu0.memDep0.insertedStores              20882                       # Number of stores inserted to the mem dependence unit.
system.cpu0.memDep0.conflictingLoads             1322                       # Number of conflicting loads.
system.cpu0.memDep0.conflictingStores             178                       # Number of conflicting stores.
system.cpu0.iq.iqInstsAdded                   5391681                       # Number of instructions added to the IQ (excludes non-spec)
system.cpu0.iq.iqNonSpecInstsAdded                198                       # Number of non-speculative instructions added to the IQ
system.cpu0.iq.iqInstsIssued                  5392899                       # Number of instructions issued
system.cpu0.iq.iqSquashedInstsIssued             6459                       # Number of squashed instructions issued
system.cpu0.iq.iqSquashedInstsExamined         324923                       # Number of squashed instructions iterated over during squash; mainly for profiling
system.cpu0.iq.iqSquashedOperandsExamined       491164                       # Number of squashed operands that are examined and possibly removed from graph
system.cpu0.iq.iqSquashedNonSpecRemoved           128                       # Number of squashed non-spec instructions that were removed
system.cpu0.iq.issued_per_cycle::samples      3280634                       # Number of insts issued each cycle
system.cpu0.iq.issued_per_cycle::mean        1.643859                       # Number of insts issued each cycle
system.cpu0.iq.issued_per_cycle::stdev       1.470387                       # Number of insts issued each cycle
system.cpu0.iq.issued_per_cycle::underflows            0      0.00%      0.00% # Number of insts issued each cycle
system.cpu0.iq.issued_per_cycle::0             906228     27.62%     27.62% # Number of insts issued each cycle
system.cpu0.iq.issued_per_cycle::1             817499     24.92%     52.54% # Number of insts issued each cycle
system.cpu0.iq.issued_per_cycle::2             625774     19.07%     71.62% # Number of insts issued each cycle
system.cpu0.iq.issued_per_cycle::3             548438     16.72%     88.33% # Number of insts issued each cycle
system.cpu0.iq.issued_per_cycle::4             312298      9.52%     97.85% # Number of insts issued each cycle
system.cpu0.iq.issued_per_cycle::5              28097      0.86%     98.71% # Number of insts issued each cycle
system.cpu0.iq.issued_per_cycle::6              19084      0.58%     99.29% # Number of insts issued each cycle
system.cpu0.iq.issued_per_cycle::7              11371      0.35%     99.64% # Number of insts issued each cycle
system.cpu0.iq.issued_per_cycle::8              11845      0.36%    100.00% # Number of insts issued each cycle
system.cpu0.iq.issued_per_cycle::overflows            0      0.00%    100.00% # Number of insts issued each cycle
system.cpu0.iq.issued_per_cycle::min_value            0                       # Number of insts issued each cycle
system.cpu0.iq.issued_per_cycle::max_value            8                       # Number of insts issued each cycle
system.cpu0.iq.issued_per_cycle::total        3280634                       # Number of insts issued each cycle
system.cpu0.iq.fu_full::No_OpClass                  0      0.00%      0.00% # attempts to use FU when none available
system.cpu0.iq.fu_full::IntAlu                   5482     24.71%     24.71% # attempts to use FU when none available
system.cpu0.iq.fu_full::IntMult                     0      0.00%     24.71% # attempts to use FU when none available
system.cpu0.iq.fu_full::IntDiv                      0      0.00%     24.71% # attempts to use FU when none available
system.cpu0.iq.fu_full::FloatAdd                   47      0.21%     24.92% # attempts to use FU when none available
system.cpu0.iq.fu_full::FloatCmp                    0      0.00%     24.92% # attempts to use FU when none available
system.cpu0.iq.fu_full::FloatCvt                    0      0.00%     24.92% # attempts to use FU when none available
system.cpu0.iq.fu_full::FloatMult                   0      0.00%     24.92% # attempts to use FU when none available
system.cpu0.iq.fu_full::FloatMultAcc                0      0.00%     24.92% # attempts to use FU when none available
system.cpu0.iq.fu_full::FloatDiv                    0      0.00%     24.92% # attempts to use FU when none available
system.cpu0.iq.fu_full::FloatMisc                   0      0.00%     24.92% # attempts to use FU when none available
system.cpu0.iq.fu_full::FloatSqrt                   0      0.00%     24.92% # attempts to use FU when none available
system.cpu0.iq.fu_full::SimdAdd                     0      0.00%     24.92% # attempts to use FU when none available
system.cpu0.iq.fu_full::SimdAddAcc                  0      0.00%     24.92% # attempts to use FU when none available
system.cpu0.iq.fu_full::SimdAlu                     0      0.00%     24.92% # attempts to use FU when none available
system.cpu0.iq.fu_full::SimdCmp                     0      0.00%     24.92% # attempts to use FU when none available
system.cpu0.iq.fu_full::SimdCvt                     0      0.00%     24.92% # attempts to use FU when none available
system.cpu0.iq.fu_full::SimdMisc                    0      0.00%     24.92% # attempts to use FU when none available
system.cpu0.iq.fu_full::SimdMult                    0      0.00%     24.92% # attempts to use FU when none available
system.cpu0.iq.fu_full::SimdMultAcc                 0      0.00%     24.92% # attempts to use FU when none available
system.cpu0.iq.fu_full::SimdShift                   0      0.00%     24.92% # attempts to use FU when none available
system.cpu0.iq.fu_full::SimdShiftAcc                0      0.00%     24.92% # attempts to use FU when none available
system.cpu0.iq.fu_full::SimdSqrt                    0      0.00%     24.92% # attempts to use FU when none available
system.cpu0.iq.fu_full::SimdFloatAdd                0      0.00%     24.92% # attempts to use FU when none available
system.cpu0.iq.fu_full::SimdFloatAlu                0      0.00%     24.92% # attempts to use FU when none available
system.cpu0.iq.fu_full::SimdFloatCmp                0      0.00%     24.92% # attempts to use FU when none available
system.cpu0.iq.fu_full::SimdFloatCvt                0      0.00%     24.92% # attempts to use FU when none available
system.cpu0.iq.fu_full::SimdFloatDiv                0      0.00%     24.92% # attempts to use FU when none available
system.cpu0.iq.fu_full::SimdFloatMisc               0      0.00%     24.92% # attempts to use FU when none available
system.cpu0.iq.fu_full::SimdFloatMult               0      0.00%     24.92% # attempts to use FU when none available
system.cpu0.iq.fu_full::SimdFloatMultAcc            0      0.00%     24.92% # attempts to use FU when none available
system.cpu0.iq.fu_full::SimdFloatSqrt               0      0.00%     24.92% # attempts to use FU when none available
system.cpu0.iq.fu_full::MemRead                 15810     71.25%     96.17% # attempts to use FU when none available
system.cpu0.iq.fu_full::MemWrite                  701      3.16%     99.33% # attempts to use FU when none available
system.cpu0.iq.fu_full::FloatMemRead              103      0.46%     99.80% # attempts to use FU when none available
system.cpu0.iq.fu_full::FloatMemWrite              45      0.20%    100.00% # attempts to use FU when none available
system.cpu0.iq.fu_full::IprAccess                   0      0.00%    100.00% # attempts to use FU when none available
system.cpu0.iq.fu_full::InstPrefetch                0      0.00%    100.00% # attempts to use FU when none available
system.cpu0.iq.FU_type_0::No_OpClass             4183      0.08%      0.08% # Type of FU issued
system.cpu0.iq.FU_type_0::IntAlu              4386033     81.33%     81.41% # Type of FU issued
system.cpu0.iq.FU_type_0::IntMult                 114      0.00%     81.41% # Type of FU issued
system.cpu0.iq.FU_type_0::IntDiv                 1220      0.02%     81.43% # Type of FU issued
system.cpu0.iq.FU_type_0::FloatAdd               4384      0.08%     81.51% # Type of FU issued
system.cpu0.iq.FU_type_0::FloatCmp                  0      0.00%     81.51% # Type of FU issued
system.cpu0.iq.FU_type_0::FloatCvt                  0      0.00%     81.51% # Type of FU issued
system.cpu0.iq.FU_type_0::FloatMult                 0      0.00%     81.51% # Type of FU issued
system.cpu0.iq.FU_type_0::FloatMultAcc              0      0.00%     81.51% # Type of FU issued
system.cpu0.iq.FU_type_0::FloatDiv                  0      0.00%     81.51% # Type of FU issued
system.cpu0.iq.FU_type_0::FloatMisc                 0      0.00%     81.51% # Type of FU issued
system.cpu0.iq.FU_type_0::FloatSqrt                 0      0.00%     81.51% # Type of FU issued
system.cpu0.iq.FU_type_0::SimdAdd                   0      0.00%     81.51% # Type of FU issued
system.cpu0.iq.FU_type_0::SimdAddAcc                0      0.00%     81.51% # Type of FU issued
system.cpu0.iq.FU_type_0::SimdAlu                   0      0.00%     81.51% # Type of FU issued
system.cpu0.iq.FU_type_0::SimdCmp                   0      0.00%     81.51% # Type of FU issued
system.cpu0.iq.FU_type_0::SimdCvt                   0      0.00%     81.51% # Type of FU issued
system.cpu0.iq.FU_type_0::SimdMisc                  0      0.00%     81.51% # Type of FU issued
system.cpu0.iq.FU_type_0::SimdMult                  0      0.00%     81.51% # Type of FU issued
system.cpu0.iq.FU_type_0::SimdMultAcc               0      0.00%     81.51% # Type of FU issued
system.cpu0.iq.FU_type_0::SimdShift                 0      0.00%     81.51% # Type of FU issued
system.cpu0.iq.FU_type_0::SimdShiftAcc              0      0.00%     81.51% # Type of FU issued
system.cpu0.iq.FU_type_0::SimdSqrt                  0      0.00%     81.51% # Type of FU issued
system.cpu0.iq.FU_type_0::SimdFloatAdd              0      0.00%     81.51% # Type of FU issued
system.cpu0.iq.FU_type_0::SimdFloatAlu              0      0.00%     81.51% # Type of FU issued
system.cpu0.iq.FU_type_0::SimdFloatCmp              0      0.00%     81.51% # Type of FU issued
system.cpu0.iq.FU_type_0::SimdFloatCvt              0      0.00%     81.51% # Type of FU issued
system.cpu0.iq.FU_type_0::SimdFloatDiv              0      0.00%     81.51% # Type of FU issued
system.cpu0.iq.FU_type_0::SimdFloatMisc             0      0.00%     81.51% # Type of FU issued
system.cpu0.iq.FU_type_0::SimdFloatMult             0      0.00%     81.51% # Type of FU issued
system.cpu0.iq.FU_type_0::SimdFloatMultAcc            0      0.00%     81.51% # Type of FU issued
system.cpu0.iq.FU_type_0::SimdFloatSqrt             0      0.00%     81.51% # Type of FU issued
system.cpu0.iq.FU_type_0::MemRead              976173     18.10%     99.61% # Type of FU issued
system.cpu0.iq.FU_type_0::MemWrite              16397      0.30%     99.92% # Type of FU issued
system.cpu0.iq.FU_type_0::FloatMemRead           3967      0.07%     99.99% # Type of FU issued
system.cpu0.iq.FU_type_0::FloatMemWrite           428      0.01%    100.00% # Type of FU issued
system.cpu0.iq.FU_type_0::IprAccess                 0      0.00%    100.00% # Type of FU issued
system.cpu0.iq.FU_type_0::InstPrefetch              0      0.00%    100.00% # Type of FU issued
system.cpu0.iq.FU_type_0::total               5392899                       # Type of FU issued
system.cpu0.iq.rate                          1.601542                       # Inst issue rate
system.cpu0.iq.fu_busy_cnt                      22188                       # FU busy when requested
system.cpu0.iq.fu_busy_rate                  0.004114                       # FU busy rate (busy events/executed inst)
system.cpu0.iq.int_inst_queue_reads          14076758                       # Number of integer instruction queue reads
system.cpu0.iq.int_inst_queue_writes          5700533                       # Number of integer instruction queue writes
system.cpu0.iq.int_inst_queue_wakeup_accesses      5245390                       # Number of integer instruction queue wakeup accesses
system.cpu0.iq.fp_inst_queue_reads              18321                       # Number of floating instruction queue reads
system.cpu0.iq.fp_inst_queue_writes             16324                       # Number of floating instruction queue writes
system.cpu0.iq.fp_inst_queue_wakeup_accesses         6324                       # Number of floating instruction queue wakeup accesses
system.cpu0.iq.int_alu_accesses               5401794                       # Number of integer alu accesses
system.cpu0.iq.fp_alu_accesses                   9110                       # Number of floating point alu accesses
system.cpu0.iew.lsq.thread0.forwLoads            2816                       # Number of loads that had data forwarded from stores
system.cpu0.iew.lsq.thread0.invAddrLoads            0                       # Number of loads ignored due to an invalid address
system.cpu0.iew.lsq.thread0.squashedLoads        44533                       # Number of loads squashed
system.cpu0.iew.lsq.thread0.ignoredResponses           18                       # Number of memory responses ignored because the instruction is squashed
system.cpu0.iew.lsq.thread0.memOrderViolation           62                       # Number of memory ordering violations
system.cpu0.iew.lsq.thread0.squashedStores         9560                       # Number of stores squashed
system.cpu0.iew.lsq.thread0.invAddrSwpfs            0                       # Number of software prefetches ignored due to an invalid address
system.cpu0.iew.lsq.thread0.blockedLoads            0                       # Number of blocked loads due to partial load-store forwarding
system.cpu0.iew.lsq.thread0.rescheduledLoads            3                       # Number of loads that were rescheduled
system.cpu0.iew.lsq.thread0.cacheBlocked       111442                       # Number of times an access to memory failed due to the cache being blocked
system.cpu0.iew.iewIdleCycles                       0                       # Number of cycles IEW is idle
system.cpu0.iew.iewSquashCycles                  8538                       # Number of cycles IEW is squashing
system.cpu0.iew.iewBlockCycles                 112262                       # Number of cycles IEW is blocking
system.cpu0.iew.iewUnblockCycles                 5477                       # Number of cycles IEW is unblocking
system.cpu0.iew.iewDispatchedInsts            5391879                       # Number of instructions dispatched to IQ
system.cpu0.iew.iewDispSquashedInsts             2267                       # Number of squashed instructions skipped by dispatch
system.cpu0.iew.iewDispLoadInsts               881126                       # Number of dispatched load instructions
system.cpu0.iew.iewDispStoreInsts               20882                       # Number of dispatched store instructions
system.cpu0.iew.iewDispNonSpecInsts               112                       # Number of dispatched non-speculative instructions
system.cpu0.iew.iewIQFullEvents                   591                       # Number of times the IQ has become full, causing a stall
system.cpu0.iew.iewLSQFullEvents                 4523                       # Number of times the LSQ has become full, causing a stall
system.cpu0.iew.memOrderViolationEvents            62                       # Number of memory order violations
system.cpu0.iew.predictedTakenIncorrect          1823                       # Number of branches that were predicted taken incorrectly
system.cpu0.iew.predictedNotTakenIncorrect         8905                       # Number of branches that were predicted not taken incorrectly
system.cpu0.iew.branchMispredicts               10728                       # Number of branch mispredicts detected at execute
system.cpu0.iew.iewExecutedInsts              5372563                       # Number of executed instructions
system.cpu0.iew.iewExecLoadInsts               974316                       # Number of load instructions executed
system.cpu0.iew.iewExecSquashedInsts            20336                       # Number of squashed instructions skipped in execute
system.cpu0.iew.exec_swp                            0                       # number of swp insts executed
system.cpu0.iew.exec_nop                            0                       # number of nop insts executed
system.cpu0.iew.exec_refs                      989965                       # number of memory reference insts executed
system.cpu0.iew.exec_branches                  843402                       # Number of branches executed
system.cpu0.iew.exec_stores                     15649                       # Number of stores executed
system.cpu0.iew.exec_rate                    1.595503                       # Inst execution rate
system.cpu0.iew.wb_sent                       5256568                       # cumulative count of insts sent to commit
system.cpu0.iew.wb_count                      5251714                       # cumulative count of insts written-back
system.cpu0.iew.wb_producers                  3932598                       # num instructions producing a value
system.cpu0.iew.wb_consumers                  5325594                       # num instructions consuming a value
system.cpu0.iew.wb_rate                      1.559614                       # insts written-back per cycle
system.cpu0.iew.wb_fanout                    0.738434                       # average fanout of values written-back
system.cpu0.commit.commitSquashedInsts         324995                       # The number of squashed insts skipped by commit
system.cpu0.commit.commitNonSpecStalls             70                       # The number of times commit has been forced to stall to communicate backwards
system.cpu0.commit.branchMispredicts             8497                       # The number of times a branch was mispredicted
system.cpu0.commit.committed_per_cycle::samples      3231621                       # Number of insts commited each cycle
system.cpu0.commit.committed_per_cycle::mean     1.567930                       # Number of insts commited each cycle
system.cpu0.commit.committed_per_cycle::stdev     2.672853                       # Number of insts commited each cycle
system.cpu0.commit.committed_per_cycle::underflows            0      0.00%      0.00% # Number of insts commited each cycle
system.cpu0.commit.committed_per_cycle::0      1958084     60.59%     60.59% # Number of insts commited each cycle
system.cpu0.commit.committed_per_cycle::1       420072     13.00%     73.59% # Number of insts commited each cycle
system.cpu0.commit.committed_per_cycle::2         9423      0.29%     73.88% # Number of insts commited each cycle
system.cpu0.commit.committed_per_cycle::3       414294     12.82%     86.70% # Number of insts commited each cycle
system.cpu0.commit.committed_per_cycle::4         8500      0.26%     86.96% # Number of insts commited each cycle
system.cpu0.commit.committed_per_cycle::5         4817      0.15%     87.11% # Number of insts commited each cycle
system.cpu0.commit.committed_per_cycle::6         1514      0.05%     87.16% # Number of insts commited each cycle
system.cpu0.commit.committed_per_cycle::7         1349      0.04%     87.20% # Number of insts commited each cycle
system.cpu0.commit.committed_per_cycle::8       413568     12.80%    100.00% # Number of insts commited each cycle
system.cpu0.commit.committed_per_cycle::overflows            0      0.00%    100.00% # Number of insts commited each cycle
system.cpu0.commit.committed_per_cycle::min_value            0                       # Number of insts commited each cycle
system.cpu0.commit.committed_per_cycle::max_value            8                       # Number of insts commited each cycle
system.cpu0.commit.committed_per_cycle::total      3231621                       # Number of insts commited each cycle
system.cpu0.commit.committedInsts             2543874                       # Number of instructions committed
system.cpu0.commit.committedOps               5066956                       # Number of ops (including micro ops) committed
system.cpu0.commit.swp_count                        0                       # Number of s/w prefetches committed
system.cpu0.commit.refs                        847915                       # Number of memory references committed
system.cpu0.commit.loads                       836593                       # Number of loads committed
system.cpu0.commit.membars                         20                       # Number of memory barriers committed
system.cpu0.commit.branches                    830516                       # Number of branches committed
system.cpu0.commit.fp_insts                      3710                       # Number of committed floating point instructions.
system.cpu0.commit.int_insts                  5063423                       # Number of committed integer instructions.
system.cpu0.commit.function_calls                 707                       # Number of function calls committed.
system.cpu0.commit.op_class_0::No_OpClass         1358      0.03%      0.03% # Class of committed instruction
system.cpu0.commit.op_class_0::IntAlu         4214011     83.17%     83.19% # Class of committed instruction
system.cpu0.commit.op_class_0::IntMult             95      0.00%     83.20% # Class of committed instruction
system.cpu0.commit.op_class_0::IntDiv            1186      0.02%     83.22% # Class of committed instruction
system.cpu0.commit.op_class_0::FloatAdd          2391      0.05%     83.27% # Class of committed instruction
system.cpu0.commit.op_class_0::FloatCmp             0      0.00%     83.27% # Class of committed instruction
system.cpu0.commit.op_class_0::FloatCvt             0      0.00%     83.27% # Class of committed instruction
system.cpu0.commit.op_class_0::FloatMult            0      0.00%     83.27% # Class of committed instruction
system.cpu0.commit.op_class_0::FloatMultAcc            0      0.00%     83.27% # Class of committed instruction
system.cpu0.commit.op_class_0::FloatDiv             0      0.00%     83.27% # Class of committed instruction
system.cpu0.commit.op_class_0::FloatMisc            0      0.00%     83.27% # Class of committed instruction
system.cpu0.commit.op_class_0::FloatSqrt            0      0.00%     83.27% # Class of committed instruction
system.cpu0.commit.op_class_0::SimdAdd              0      0.00%     83.27% # Class of committed instruction
system.cpu0.commit.op_class_0::SimdAddAcc            0      0.00%     83.27% # Class of committed instruction
system.cpu0.commit.op_class_0::SimdAlu              0      0.00%     83.27% # Class of committed instruction
system.cpu0.commit.op_class_0::SimdCmp              0      0.00%     83.27% # Class of committed instruction
system.cpu0.commit.op_class_0::SimdCvt              0      0.00%     83.27% # Class of committed instruction
system.cpu0.commit.op_class_0::SimdMisc             0      0.00%     83.27% # Class of committed instruction
system.cpu0.commit.op_class_0::SimdMult             0      0.00%     83.27% # Class of committed instruction
system.cpu0.commit.op_class_0::SimdMultAcc            0      0.00%     83.27% # Class of committed instruction
system.cpu0.commit.op_class_0::SimdShift            0      0.00%     83.27% # Class of committed instruction
system.cpu0.commit.op_class_0::SimdShiftAcc            0      0.00%     83.27% # Class of committed instruction
system.cpu0.commit.op_class_0::SimdSqrt             0      0.00%     83.27% # Class of committed instruction
system.cpu0.commit.op_class_0::SimdFloatAdd            0      0.00%     83.27% # Class of committed instruction
system.cpu0.commit.op_class_0::SimdFloatAlu            0      0.00%     83.27% # Class of committed instruction
system.cpu0.commit.op_class_0::SimdFloatCmp            0      0.00%     83.27% # Class of committed instruction
system.cpu0.commit.op_class_0::SimdFloatCvt            0      0.00%     83.27% # Class of committed instruction
system.cpu0.commit.op_class_0::SimdFloatDiv            0      0.00%     83.27% # Class of committed instruction
system.cpu0.commit.op_class_0::SimdFloatMisc            0      0.00%     83.27% # Class of committed instruction
system.cpu0.commit.op_class_0::SimdFloatMult            0      0.00%     83.27% # Class of committed instruction
system.cpu0.commit.op_class_0::SimdFloatMultAcc            0      0.00%     83.27% # Class of committed instruction
system.cpu0.commit.op_class_0::SimdFloatSqrt            0      0.00%     83.27% # Class of committed instruction
system.cpu0.commit.op_class_0::MemRead         835733     16.49%     99.76% # Class of committed instruction
system.cpu0.commit.op_class_0::MemWrite         10922      0.22%     99.98% # Class of committed instruction
system.cpu0.commit.op_class_0::FloatMemRead          860      0.02%     99.99% # Class of committed instruction
system.cpu0.commit.op_class_0::FloatMemWrite          400      0.01%    100.00% # Class of committed instruction
system.cpu0.commit.op_class_0::IprAccess            0      0.00%    100.00% # Class of committed instruction
system.cpu0.commit.op_class_0::InstPrefetch            0      0.00%    100.00% # Class of committed instruction
system.cpu0.commit.op_class_0::total          5066956                       # Class of committed instruction
system.cpu0.commit.bw_lim_events               413568                       # number cycles where commit BW limit reached
system.cpu0.rob.rob_reads                     8209991                       # The number of ROB reads
system.cpu0.rob.rob_writes                   10833529                       # The number of ROB writes
system.cpu0.timesIdled                            803                       # Number of times that the entire CPU went into an idle state and unscheduled itself
system.cpu0.idleCycles                          86682                       # Total number of cycles that the CPU has spent unscheduled due to idling
system.cpu0.committedInsts                    2543874                       # Number of Instructions Simulated
system.cpu0.committedOps                      5066956                       # Number of Ops (including micro ops) Simulated
system.cpu0.cpi                              1.323696                       # CPI: Cycles Per Instruction
system.cpu0.cpi_total                        1.323696                       # CPI: Total CPI of All Threads
system.cpu0.ipc                              0.755460                       # IPC: Instructions Per Cycle
system.cpu0.ipc_total                        0.755460                       # IPC: Total IPC of All Threads
system.cpu0.int_regfile_reads                 5637721                       # number of integer regfile reads
system.cpu0.int_regfile_writes                4388583                       # number of integer regfile writes
system.cpu0.fp_regfile_reads                     9413                       # number of floating regfile reads
system.cpu0.fp_regfile_writes                    5504                       # number of floating regfile writes
system.cpu0.cc_regfile_reads                  2633135                       # number of cc regfile reads
system.cpu0.cc_regfile_writes                 1758517                       # number of cc regfile writes
system.cpu0.misc_regfile_reads                3098963                       # number of misc regfile reads
system.cpu1.branchPred.lookups                1192036                       # Number of BP lookups
system.cpu1.branchPred.condPredicted          1192036                       # Number of conditional branches predicted
system.cpu1.branchPred.condIncorrect             8857                       # Number of conditional branches incorrect
system.cpu1.branchPred.BTBLookups              838425                       # Number of BTB lookups
system.cpu1.branchPred.BTBHits                      0                       # Number of BTB hits
system.cpu1.branchPred.BTBCorrect                   0                       # Number of correct BTB predictions (this stat may not work properly.
system.cpu1.branchPred.BTBHitPct             0.000000                       # BTB Hit Percentage
system.cpu1.branchPred.usedRAS                  39919                       # Number of times the RAS was used to get a target.
system.cpu1.branchPred.RASInCorrect               473                       # Number of incorrect RAS predictions.
system.cpu1.branchPred.indirectLookups         838425                       # Number of indirect predictor lookups.
system.cpu1.branchPred.indirectHits            593390                       # Number of indirect target hits.
system.cpu1.branchPred.indirectMisses          245035                       # Number of indirect misses.
system.cpu1.branchPredindirectMispredicted         4733                       # Number of mispredicted indirect branches.
system.cpu1.clk_domain.clock                      500                       # Clock period in ticks
system.cpu1.dtb.walker.pwrStateResidencyTicks::UNDEFINED   6145377500                       # Cumulative time (in ticks) in various power states
system.cpu1.apic_clk_domain.clock                8000                       # Clock period in ticks
system.cpu1.interrupts.pwrStateResidencyTicks::UNDEFINED   6145377500                       # Cumulative time (in ticks) in various power states
system.cpu1.itb.walker.pwrStateResidencyTicks::UNDEFINED   6145377500                       # Cumulative time (in ticks) in various power states
system.cpu1.workload.num_syscalls               37494                       # Number of system calls
system.cpu1.pwrStateResidencyTicks::ON     6145377500                       # Cumulative time (in ticks) in various power states
system.cpu1.numCycles                        12290756                       # number of cpu cycles simulated
system.cpu1.numWorkItemsStarted                     0                       # number of work items this cpu started
system.cpu1.numWorkItemsCompleted                   0                       # number of work items this cpu completed
system.cpu1.fetch.icacheStallCycles           1136485                       # Number of cycles fetch is stalled on an Icache miss
system.cpu1.fetch.Insts                       3623761                       # Number of instructions fetch has processed
system.cpu1.fetch.Branches                    1192036                       # Number of branches that fetch encountered
system.cpu1.fetch.predictedBranches            633309                       # Number of branches that fetch has predicted taken
system.cpu1.fetch.Cycles                      5030401                       # Number of cycles fetch has run and was not squashing or blocked
system.cpu1.fetch.SquashCycles                  17895                       # Number of cycles fetch has spent squashing
system.cpu1.fetch.TlbCycles                         2                       # Number of cycles fetch has spent waiting for tlb
system.cpu1.fetch.MiscStallCycles               11539                       # Number of cycles fetch has spent waiting on interrupts, or bad addresses, or out of MSHRs
system.cpu1.fetch.NoActiveThreadStallCycles      6014617                       # Number of stall cycles due to no active thread to fetch from
system.cpu1.fetch.PendingTrapStallCycles          545                       # Number of stall cycles due to pending traps
system.cpu1.fetch.PendingQuiesceStallCycles           15                       # Number of stall cycles due to pending quiesce instructions
system.cpu1.fetch.IcacheWaitRetryStallCycles         7125                       # Number of stall cycles due to full MSHR
system.cpu1.fetch.CacheLines                  1106833                       # Number of cache lines fetched
system.cpu1.fetch.IcacheSquashes                 2702                       # Number of outstanding Icache misses that were squashed
system.cpu1.fetch.rateDist::samples          12209676                       # Number of instructions fetched each cycle (Total)
system.cpu1.fetch.rateDist::mean             0.588186                       # Number of instructions fetched each cycle (Total)
system.cpu1.fetch.rateDist::stdev            1.892201                       # Number of instructions fetched each cycle (Total)
system.cpu1.fetch.rateDist::underflows              0      0.00%      0.00% # Number of instructions fetched each cycle (Total)
system.cpu1.fetch.rateDist::0                10967718     89.83%     89.83% # Number of instructions fetched each cycle (Total)
system.cpu1.fetch.rateDist::1                   64540      0.53%     90.36% # Number of instructions fetched each cycle (Total)
system.cpu1.fetch.rateDist::2                   22271      0.18%     90.54% # Number of instructions fetched each cycle (Total)
system.cpu1.fetch.rateDist::3                   65449      0.54%     91.08% # Number of instructions fetched each cycle (Total)
system.cpu1.fetch.rateDist::4                  402133      3.29%     94.37% # Number of instructions fetched each cycle (Total)
system.cpu1.fetch.rateDist::5                   27423      0.22%     94.59% # Number of instructions fetched each cycle (Total)
system.cpu1.fetch.rateDist::6                   44120      0.36%     94.95% # Number of instructions fetched each cycle (Total)
system.cpu1.fetch.rateDist::7                   62412      0.51%     95.47% # Number of instructions fetched each cycle (Total)
system.cpu1.fetch.rateDist::8                  553610      4.53%    100.00% # Number of instructions fetched each cycle (Total)
system.cpu1.fetch.rateDist::overflows               0      0.00%    100.00% # Number of instructions fetched each cycle (Total)
system.cpu1.fetch.rateDist::min_value               0                       # Number of instructions fetched each cycle (Total)
system.cpu1.fetch.rateDist::max_value               8                       # Number of instructions fetched each cycle (Total)
system.cpu1.fetch.rateDist::total            12209676                       # Number of instructions fetched each cycle (Total)
system.cpu1.fetch.branchRate                 0.096986                       # Number of branch fetches per cycle
system.cpu1.fetch.rate                       0.294836                       # Number of inst fetches per cycle
system.cpu1.decode.IdleCycles                  318630                       # Number of cycles decode is idle
system.cpu1.decode.BlockedCycles              4922265                       # Number of cycles decode is blocked
system.cpu1.decode.RunCycles                   281164                       # Number of cycles decode is running
system.cpu1.decode.UnblockCycles               664053                       # Number of cycles decode is unblocking
system.cpu1.decode.SquashCycles                  8947                       # Number of cycles decode is squashing
system.cpu1.decode.DecodedInsts               7095110                       # Number of instructions handled by decode
system.cpu1.rename.SquashCycles                  8947                       # Number of cycles rename is squashing
system.cpu1.rename.IdleCycles                  445922                       # Number of cycles rename is idle
system.cpu1.rename.BlockCycles                1390980                       # Number of cycles rename is blocking
system.cpu1.rename.serializeStallCycles       2562630                       # count of cycles rename stalled for serializing inst
system.cpu1.rename.RunCycles                   512495                       # Number of cycles rename is running
system.cpu1.rename.UnblockCycles              1274085                       # Number of cycles rename is unblocking
system.cpu1.rename.RenamedInsts               7052467                       # Number of instructions processed by rename
system.cpu1.rename.ROBFullEvents               734896                       # Number of times rename has blocked due to ROB full
system.cpu1.rename.IQFullEvents                 13271                       # Number of times rename has blocked due to IQ full
system.cpu1.rename.LQFullEvents                296838                       # Number of times rename has blocked due to LQ full
system.cpu1.rename.SQFullEvents                 37411                       # Number of times rename has blocked due to SQ full
system.cpu1.rename.RenamedOperands            7983750                       # Number of destination operands rename has renamed
system.cpu1.rename.RenameLookups             15614113                       # Number of register rename lookups that rename has made
system.cpu1.rename.int_rename_lookups         7757623                       # Number of integer rename lookups
system.cpu1.rename.fp_rename_lookups            18943                       # Number of floating rename lookups
system.cpu1.rename.CommittedMaps              7465769                       # Number of HB maps that are committed
system.cpu1.rename.UndoneMaps                  517981                       # Number of HB maps that are undone due to squashing
system.cpu1.rename.serializingInsts             37537                       # count of serializing insts renamed
system.cpu1.rename.tempSerializingInsts         37538                       # count of temporary serializing insts renamed
system.cpu1.rename.skidInsts                  4186765                       # count of insts added to the skid buffer
system.cpu1.memDep0.insertedLoads             1074908                       # Number of loads inserted to the mem dependence unit.
system.cpu1.memDep0.insertedStores              60945                       # Number of stores inserted to the mem dependence unit.
system.cpu1.memDep0.conflictingLoads             4386                       # Number of conflicting loads.
system.cpu1.memDep0.conflictingStores             572                       # Number of conflicting stores.
system.cpu1.iq.iqInstsAdded                   6938341                       # Number of instructions added to the IQ (excludes non-spec)
system.cpu1.iq.iqNonSpecInstsAdded              37650                       # Number of non-speculative instructions added to the IQ
system.cpu1.iq.iqInstsIssued                  6979844                       # Number of instructions issued
system.cpu1.iq.iqSquashedInstsIssued             6899                       # Number of squashed instructions issued
system.cpu1.iq.iqSquashedInstsExamined         343263                       # Number of squashed instructions iterated over during squash; mainly for profiling
system.cpu1.iq.iqSquashedOperandsExamined       517525                       # Number of squashed operands that are examined and possibly removed from graph
system.cpu1.iq.iqSquashedNonSpecRemoved           126                       # Number of squashed non-spec instructions that were removed
system.cpu1.iq.issued_per_cycle::samples     12209676                       # Number of insts issued each cycle
system.cpu1.iq.issued_per_cycle::mean        0.571665                       # Number of insts issued each cycle
system.cpu1.iq.issued_per_cycle::stdev       1.276153                       # Number of insts issued each cycle
system.cpu1.iq.issued_per_cycle::underflows            0      0.00%      0.00% # Number of insts issued each cycle
system.cpu1.iq.issued_per_cycle::0            9315152     76.29%     76.29% # Number of insts issued each cycle
system.cpu1.iq.issued_per_cycle::1            1090350      8.93%     85.22% # Number of insts issued each cycle
system.cpu1.iq.issued_per_cycle::2             601068      4.92%     90.15% # Number of insts issued each cycle
[...]
system.ruby.Directory_Controller.O.GETX          3189      0.00%      0.00%
system.ruby.Directory_Controller.O.GETS         12879      0.00%      0.00%
system.ruby.Directory_Controller.NO.GETX          132      0.00%      0.00%
system.ruby.Directory_Controller.NO.GETS          592      0.00%      0.00%
system.ruby.Directory_Controller.NO.Lockdown          285      0.00%      0.00%
system.ruby.Directory_Controller.L.Unlockdown          879      0.00%      0.00%
system.ruby.Directory_Controller.L_NO_W.Memory_Data          594      0.00%      0.00%
system.ruby.Directory_Controller.NO_W.Lockdown          594      0.00%      0.00%
system.ruby.Directory_Controller.NO_W.Memory_Data        15474      0.00%      0.00%
system.ruby.L1Cache_Controller.Load      |      458357     15.39%     15.39% |      630376     21.17%     36.56% |      813935     27.33%     63.90% |     1058601     35.55%     99.45% |       16384      0.55%    100.00%
system.ruby.L1Cache_Controller.Load::total      2977653                      
system.ruby.L1Cache_Controller.Ifetch    |      847615     16.99%     16.99% |     1106654     22.19%     39.18% |     1370026     27.47%     66.64% |     1663849     33.36%    100.00% |           0      0.00%    100.00%
system.ruby.L1Cache_Controller.Ifetch::total      4988144                      
system.ruby.L1Cache_Controller.Store     |       11689      3.52%      3.52% |       51189     15.42%     18.94% |       94964     28.61%     47.55% |      157737     47.52%     95.06% |       16384      4.94%    100.00%
system.ruby.L1Cache_Controller.Store::total       331963                      
system.ruby.L1Cache_Controller.L1_Replacement |        2513     21.58%     21.58% |        2596     22.29%     43.87% |        2730     23.44%     67.30% |        3552     30.50%     97.80% |         256      2.20%    100.00%
system.ruby.L1Cache_Controller.L1_Replacement::total        11647                      
system.ruby.L1Cache_Controller.Data_Shared |         419     25.13%     25.13% |         436     26.15%     51.29% |         387     23.22%     74.51% |         425     25.49%    100.00% |           0      0.00%    100.00%
system.ruby.L1Cache_Controller.Data_Shared::total         1667                      
system.ruby.L1Cache_Controller.Data_All_Tokens |        3656     21.50%     21.50% |        3719     21.88%     43.38% |        3905     22.97%     66.35% |        4697     27.63%     93.98% |        1024      6.02%    100.00%
system.ruby.L1Cache_Controller.Data_All_Tokens::total        17001                      
system.ruby.L1Cache_Controller.Transient_Local_GETX |        2983     21.13%     21.13% |        2927     20.73%     41.86% |        2738     19.39%     61.25% |        1942     13.75%     75.00% |        3530     25.00%    100.00%
system.ruby.L1Cache_Controller.Transient_Local_GETX::total        14120                      
system.ruby.L1Cache_Controller.Transient_Local_GETS |       11610     19.17%     19.17% |       11586     19.13%     38.31% |       11638     19.22%     57.53% |       11604     19.16%     76.69% |       14114     23.31%    100.00%
system.ruby.L1Cache_Controller.Transient_Local_GETS::total        60552                      
system.ruby.L1Cache_Controller.Persistent_GETX |         136     20.24%     20.24% |         124     18.45%     38.69% |         140     20.83%     59.52% |         104     15.48%     75.00% |         168     25.00%    100.00%
system.ruby.L1Cache_Controller.Persistent_GETX::total          672                      
system.ruby.L1Cache_Controller.Persistent_GETS |         528     18.57%     18.57% |         537     18.88%     37.45% |         541     19.02%     56.47% |         542     19.06%     75.53% |         696     24.47%    100.00%
system.ruby.L1Cache_Controller.Persistent_GETS::total         2844                      
system.ruby.L1Cache_Controller.Own_Lock_or_Unlock |        1094     20.74%     20.74% |        1097     20.80%     41.54% |        1077     20.42%     61.96% |        1112     21.08%     83.05% |         894     16.95%    100.00%
system.ruby.L1Cache_Controller.Own_Lock_or_Unlock::total         5274                      
system.ruby.L1Cache_Controller.Request_Timeout |        1360     28.61%     28.61% |        1165     24.51%     53.12% |        1320     27.77%     80.90% |         893     18.79%     99.68% |          15      0.32%    100.00%
system.ruby.L1Cache_Controller.Request_Timeout::total         4753                      
system.ruby.L1Cache_Controller.Use_TimeoutNoStarvers |        3656     21.51%     21.51% |        3719     21.88%     43.38% |        3905     22.97%     66.35% |        4696     27.62%     93.98% |        1024      6.02%    100.00%
system.ruby.L1Cache_Controller.Use_TimeoutNoStarvers::total        17000                      
system.ruby.L1Cache_Controller.NP.Load   |        2268     22.44%     22.44% |        2285     22.61%     45.04% |        2253     22.29%     67.33% |        2278     22.54%     89.87% |        1024     10.13%    100.00%
system.ruby.L1Cache_Controller.NP.Load::total        10108                      
system.ruby.L1Cache_Controller.NP.Ifetch |        1259     25.03%     25.03% |        1267     25.19%     50.23% |        1247     24.80%     75.02% |        1256     24.98%    100.00% |           0      0.00%    100.00%
system.ruby.L1Cache_Controller.NP.Ifetch::total         5029                      
system.ruby.L1Cache_Controller.NP.Store  |         515     15.16%     15.16% |         573     16.86%     32.02% |         762     22.42%     54.44% |        1548     45.56%    100.00% |           0      0.00%    100.00%
system.ruby.L1Cache_Controller.NP.Store::total         3398                      
system.ruby.L1Cache_Controller.NP.Transient_Local_GETX |        2983     21.13%     21.13% |        2927     20.73%     41.86% |        2738     19.39%     61.25% |        1942     13.75%     75.00% |        3530     25.00%    100.00%
system.ruby.L1Cache_Controller.NP.Transient_Local_GETX::total        14120                      
system.ruby.L1Cache_Controller.NP.Transient_Local_GETS |       11603     19.35%     19.35% |       11519     19.21%     38.56% |       11382     18.98%     57.55% |       11348     18.93%     76.47% |       14108     23.53%    100.00%
system.ruby.L1Cache_Controller.NP.Transient_Local_GETS::total        59960                      
system.ruby.L1Cache_Controller.NP.Own_Lock_or_Unlock |         664     18.89%     18.89% |         661     18.80%     37.68% |         681     19.37%     57.05% |         646     18.37%     75.43% |         864     24.57%    100.00%
system.ruby.L1Cache_Controller.NP.Own_Lock_or_Unlock::total         3516                      
system.ruby.L1Cache_Controller.I.Load    |           1    100.00%    100.00% |           0      0.00%    100.00% |           0      0.00%    100.00% |           0      0.00%    100.00% |           0      0.00%    100.00%
system.ruby.L1Cache_Controller.I.Load::total            1                      
system.ruby.L1Cache_Controller.I.L1_Replacement |           0      0.00%      0.00% |           3     11.11%     11.11% |           2      7.41%     18.52% |          22     81.48%    100.00% |           0      0.00%    100.00%
system.ruby.L1Cache_Controller.I.L1_Replacement::total           27                      
system.ruby.L1Cache_Controller.S.Load    |        4531      0.52%      0.52% |       79675      9.21%      9.73% |      155414     17.97%     27.70% |      625395     72.30%    100.00% |           0      0.00%    100.00%
system.ruby.L1Cache_Controller.S.Load::total       865015                      
system.ruby.L1Cache_Controller.S.Ifetch  |      401269     18.63%     18.63% |      188337      8.75%     27.38% |      376547     17.49%     44.87% |     1187230     55.13%    100.00% |           0      0.00%    100.00%
system.ruby.L1Cache_Controller.S.Ifetch::total      2153383                      
system.ruby.L1Cache_Controller.S.Store   |          32     24.24%     24.24% |          30     22.73%     46.97% |          30     22.73%     69.70% |          40     30.30%    100.00% |           0      0.00%    100.00%
system.ruby.L1Cache_Controller.S.Store::total          132                      
system.ruby.L1Cache_Controller.S.L1_Replacement |         184     19.68%     19.68% |         238     25.45%     45.13% |         209     22.35%     67.49% |         304     32.51%    100.00% |           0      0.00%    100.00%
system.ruby.L1Cache_Controller.S.L1_Replacement::total          935                      
system.ruby.L1Cache_Controller.M.Load    |       15116     19.28%     19.28% |       16421     20.95%     40.23% |       17077     21.78%     62.01% |       15851     20.22%     82.23% |       13929     17.77%    100.00%
system.ruby.L1Cache_Controller.M.Load::total        78394                      
system.ruby.L1Cache_Controller.M.Ifetch  |      444661     15.72%     15.72% |      916616     32.41%     48.14% |      991815     35.07%     83.21% |      474936     16.79%    100.00% |           0      0.00%    100.00%
system.ruby.L1Cache_Controller.M.Ifetch::total      2828028                      
system.ruby.L1Cache_Controller.M.Store   |          49      3.99%      3.99% |          51      4.16%      8.15% |          51      4.16%     12.31% |          52      4.24%     16.54% |        1024     83.46%    100.00%
system.ruby.L1Cache_Controller.M.Store::total         1227                      
system.ruby.L1Cache_Controller.M.L1_Replacement |        1826     22.13%     22.13% |        1846     22.37%     44.49% |        2013     24.39%     68.88% |        2568     31.12%    100.00% |           0      0.00%    100.00%
system.ruby.L1Cache_Controller.M.L1_Replacement::total         8253                      
system.ruby.L1Cache_Controller.M.Own_Lock_or_Unlock |         183     25.77%     25.77% |         173     24.37%     50.14% |         170     23.94%     74.08% |         169     23.80%     97.89% |          15      2.11%    100.00%
system.ruby.L1Cache_Controller.M.Own_Lock_or_Unlock::total          710                      
system.ruby.L1Cache_Controller.MM.Load   |      425039     21.49%     21.49% |      520573     26.32%     47.81% |      628109     31.76%     79.57% |      404047     20.43%    100.00% |           0      0.00%    100.00%
system.ruby.L1Cache_Controller.MM.Load::total      1977768                      
system.ruby.L1Cache_Controller.MM.Store  |        9030      2.95%      2.95% |       47913     15.67%     18.63% |       89576     29.30%     47.93% |      143819     47.05%     94.98% |       15360      5.02%    100.00%
system.ruby.L1Cache_Controller.MM.Store::total       305698                      
system.ruby.L1Cache_Controller.MM.L1_Replacement |         503     20.69%     20.69% |         509     20.94%     41.63% |         505     20.77%     62.40% |         658     27.07%     89.47% |         256     10.53%    100.00%
system.ruby.L1Cache_Controller.MM.L1_Replacement::total         2431                      
system.ruby.L1Cache_Controller.MM.Transient_Local_GETS |           7      1.18%      1.18% |          67     11.32%     12.50% |         256     43.24%     55.74% |         256     43.24%     98.99% |           6      1.01%    100.00%
system.ruby.L1Cache_Controller.MM.Transient_Local_GETS::total          592                      
system.ruby.L1Cache_Controller.MM.Own_Lock_or_Unlock |          32     18.93%     18.93% |          45     26.63%     45.56% |          28     16.57%     62.13% |          64     37.87%    100.00% |           0      0.00%    100.00%
system.ruby.L1Cache_Controller.MM.Own_Lock_or_Unlock::total          169                      
system.ruby.L1Cache_Controller.M_W.Load  |       11367     24.59%     24.59% |       11392     24.64%     49.23% |       11045     23.89%     73.13% |       10992     23.78%     96.90% |        1431      3.10%    100.00%
system.ruby.L1Cache_Controller.M_W.Load::total        46227                      
system.ruby.L1Cache_Controller.M_W.Ifetch |         426     25.00%     25.00% |         434     25.47%     50.47% |         417     24.47%     74.94% |         427     25.06%    100.00% |           0      0.00%    100.00%
system.ruby.L1Cache_Controller.M_W.Ifetch::total         1704                      
system.ruby.L1Cache_Controller.M_W.Store |          10     24.39%     24.39% |          12     29.27%     53.66% |           9     21.95%     75.61% |          10     24.39%    100.00% |           0      0.00%    100.00%
system.ruby.L1Cache_Controller.M_W.Store::total           41                      
system.ruby.L1Cache_Controller.M_W.L1_Replacement |           0      0.00%      0.00% |           0      0.00%      0.00% |           1    100.00%    100.00% |           0      0.00%    100.00% |           0      0.00%    100.00%
system.ruby.L1Cache_Controller.M_W.L1_Replacement::total            1                      
system.ruby.L1Cache_Controller.M_W.Own_Lock_or_Unlock |          27     28.72%     28.72% |          26     27.66%     56.38% |          16     17.02%     73.40% |          25     26.60%    100.00% |           0      0.00%    100.00%
system.ruby.L1Cache_Controller.M_W.Own_Lock_or_Unlock::total           94                      
system.ruby.L1Cache_Controller.M_W.Use_TimeoutNoStarvers |        3099     23.08%     23.08% |        3104     23.11%     46.19% |        3104     23.11%     69.31% |        3098     23.07%     92.37% |        1024      7.63%    100.00%
system.ruby.L1Cache_Controller.M_W.Use_TimeoutNoStarvers::total        13429                      
system.ruby.L1Cache_Controller.MM_W.Load |          35     25.00%     25.00% |          30     21.43%     46.43% |          37     26.43%     72.86% |          38     27.14%    100.00% |           0      0.00%    100.00%
system.ruby.L1Cache_Controller.MM_W.Load::total          140                      
system.ruby.L1Cache_Controller.MM_W.Store |        2053      9.56%      9.56% |        2610     12.16%     21.72% |        4536     21.13%     42.85% |       12268     57.15%    100.00% |           0      0.00%    100.00%
system.ruby.L1Cache_Controller.MM_W.Store::total        21467                      
system.ruby.L1Cache_Controller.MM_W.Own_Lock_or_Unlock |          10     33.33%     33.33% |           7     23.33%     56.67% |           5     16.67%     73.33% |           8     26.67%    100.00% |           0      0.00%    100.00%
system.ruby.L1Cache_Controller.MM_W.Own_Lock_or_Unlock::total           30                      
system.ruby.L1Cache_Controller.MM_W.Use_TimeoutNoStarvers |         557     15.60%     15.60% |         615     17.22%     32.82% |         801     22.43%     55.25% |        1598     44.75%    100.00% |           0      0.00%    100.00%
system.ruby.L1Cache_Controller.MM_W.Use_TimeoutNoStarvers::total         3571                      
system.ruby.L1Cache_Controller.IM.Data_All_Tokens |         515     15.16%     15.16% |         573     16.86%     32.02% |         762     22.42%     54.44% |        1548     45.56%    100.00% |           0      0.00%    100.00%
system.ruby.L1Cache_Controller.IM.Data_All_Tokens::total         3398                      
system.ruby.L1Cache_Controller.IM.Own_Lock_or_Unlock |          22     15.94%     15.94% |          37     26.81%     42.75% |          23     16.67%     59.42% |          56     40.58%    100.00% |           0      0.00%    100.00%
system.ruby.L1Cache_Controller.IM.Own_Lock_or_Unlock::total          138                      
system.ruby.L1Cache_Controller.IM.Request_Timeout |         103     19.77%     19.77% |         160     30.71%     50.48% |         139     26.68%     77.16% |         119     22.84%    100.00% |           0      0.00%    100.00%
system.ruby.L1Cache_Controller.IM.Request_Timeout::total          521                      
system.ruby.L1Cache_Controller.SM.Data_All_Tokens |          32     24.24%     24.24% |          30     22.73%     46.97% |          30     22.73%     69.70% |          40     30.30%    100.00% |           0      0.00%    100.00%
system.ruby.L1Cache_Controller.SM.Data_All_Tokens::total          132                      
system.ruby.L1Cache_Controller.IS.Data_Shared |         419     25.13%     25.13% |         436     26.15%     51.29% |         387     23.22%     74.51% |         425     25.49%    100.00% |           0      0.00%    100.00%
system.ruby.L1Cache_Controller.IS.Data_Shared::total         1667                      
system.ruby.L1Cache_Controller.IS.Data_All_Tokens |        3109     23.08%     23.08% |        3116     23.13%     46.21% |        3113     23.11%     69.32% |        3109     23.08%     92.40% |        1024      7.60%    100.00%
system.ruby.L1Cache_Controller.IS.Data_All_Tokens::total        13471                      
system.ruby.L1Cache_Controller.IS.Own_Lock_or_Unlock |         156     25.28%     25.28% |         148     23.99%     49.27% |         154     24.96%     74.23% |         144     23.34%     97.57% |          15      2.43%    100.00%
system.ruby.L1Cache_Controller.IS.Own_Lock_or_Unlock::total          617                      
system.ruby.L1Cache_Controller.IS.Request_Timeout |        1257     29.70%     29.70% |        1005     23.75%     53.45% |        1181     27.91%     81.36% |         774     18.29%     99.65% |          15      0.35%    100.00%
system.ruby.L1Cache_Controller.IS.Request_Timeout::total         4232                      
system.ruby.L1Cache_Controller.I_L.Persistent_GETX |         136     20.24%     20.24% |         124     18.45%     38.69% |         140     20.83%     59.52% |         104     15.48%     75.00% |         168     25.00%    100.00%
system.ruby.L1Cache_Controller.I_L.Persistent_GETX::total          672                      
system.ruby.L1Cache_Controller.I_L.Persistent_GETS |         528     18.57%     18.57% |         537     18.88%     37.45% |         541     19.02%     56.47% |         542     19.06%     75.53% |         696     24.47%    100.00%
system.ruby.L1Cache_Controller.I_L.Persistent_GETS::total         2844                      
system.ruby.L2Cache_Controller.L1_GETS          15138      0.00%      0.00%
system.ruby.L2Cache_Controller.L1_GETX           3530      0.00%      0.00%
system.ruby.L2Cache_Controller.L1_INV             592      0.00%      0.00%
system.ruby.L2Cache_Controller.Writeback_Shared_Data            3      0.00%      0.00%
system.ruby.L2Cache_Controller.Writeback_All_Tokens        11616      0.00%      0.00%
system.ruby.L2Cache_Controller.Persistent_GETX          168      0.00%      0.00%
system.ruby.L2Cache_Controller.Persistent_GETS          711      0.00%      0.00%
system.ruby.L2Cache_Controller.Own_Lock_or_Unlock          879      0.00%      0.00%
system.ruby.L2Cache_Controller.NP.L1_GETS        13471      0.00%      0.00%
system.ruby.L2Cache_Controller.NP.L1_GETX         3189      0.00%      0.00%
system.ruby.L2Cache_Controller.NP.L1_INV          592      0.00%      0.00%
system.ruby.L2Cache_Controller.NP.Writeback_All_Tokens        10530      0.00%      0.00%
system.ruby.L2Cache_Controller.NP.Own_Lock_or_Unlock          879      0.00%      0.00%
system.ruby.L2Cache_Controller.I.Writeback_All_Tokens          154      0.00%      0.00%
system.ruby.L2Cache_Controller.O.L1_GETS            3      0.00%      0.00%
system.ruby.L2Cache_Controller.O.L1_GETX          132      0.00%      0.00%
system.ruby.L2Cache_Controller.O.Writeback_Shared_Data            3      0.00%      0.00%
system.ruby.L2Cache_Controller.O.Writeback_All_Tokens          932      0.00%      0.00%
system.ruby.L2Cache_Controller.M.L1_GETS         1664      0.00%      0.00%
system.ruby.L2Cache_Controller.M.L1_GETX          209      0.00%      0.00%
system.ruby.L2Cache_Controller.I_L.Persistent_GETX          168      0.00%      0.00%
system.ruby.L2Cache_Controller.I_L.Persistent_GETS          711      0.00%      0.00%

---------- End Simulation Statistics   ----------
