
---------- Begin Simulation Statistics ----------
sim_seconds                                  0.006145                       # Number of seconds simulated
sim_ticks                                  6145334500                       # Number of ticks simulated
final_tick                                 6145334500                       # Number of ticks from beginning of simulation (restored from checkpoints and never reset)
sim_freq                                 1000000000000                       # Frequency of simulated ticks
host_inst_rate                                  43710                       # Simulator instruction rate (inst/s)
host_op_rate                                    86459                       # Simulator op (including micro ops) rate (op/s)
host_tick_rate                               17460764                       # Simulator tick rate (ticks/s)
host_mem_usage                                 850364                       # Number of bytes of host memory used
host_seconds                                   351.95                       # Real time elapsed on the host
sim_insts                                    15383750                       # Number of instructions simulated
sim_ops                                      30429187                       # Number of ops (including micro ops) simulated
system.voltage_domain.voltage                       1                       # Voltage in Volts
system.clk_domain.clock                          1000                       # Clock period in ticks
system.mem_ctrls.pwrStateResidencyTicks::UNDEFINED   6145334500                       # Cumulative time (in ticks) in various power states
system.mem_ctrls.bytes_read::ruby.dir_cntrl0      1028160                       # Number of bytes read from this memory
system.mem_ctrls.bytes_read::total            1028160                       # Number of bytes read from this memory
system.mem_ctrls.num_reads::ruby.dir_cntrl0        16065                       # Number of read requests responded to by this memory
system.mem_ctrls.num_reads::total               16065                       # Number of read requests responded to by this memory
system.mem_ctrls.bw_read::ruby.dir_cntrl0    167307410                       # Total read bandwidth from this memory (bytes/s)
system.mem_ctrls.bw_read::total             167307410                       # Total read bandwidth from this memory (bytes/s)
system.mem_ctrls.bw_total::ruby.dir_cntrl0    167307410                       # Total bandwidth to/from this memory (bytes/s)
system.mem_ctrls.bw_total::total            167307410                       # Total bandwidth to/from this memory (bytes/s)
system.mem_ctrls.readReqs                       16065                       # Number of read requests accepted
system.mem_ctrls.avgNetLat                       0.00                       # Average network latency to DRAM controller
system.mem_ctrls.writeReqs                          0                       # Number of write requests accepted
system.mem_ctrls.readBursts                     16065                       # Number of DRAM read bursts, including those serviced by the write queue
system.mem_ctrls.writeBursts                        0                       # Number of DRAM write bursts, including those merged in the write queue
system.mem_ctrls.bytesReadDRAM                1028160                       # Total number of bytes read from DRAM
system.mem_ctrls.bytesReadWrQ                       0                       # Total number of bytes read from write queue
system.mem_ctrls.bytesWritten                       0                       # Total number of bytes written to DRAM
system.mem_ctrls.bytesReadSys                 1028160                       # Total read bytes from the system interface side
system.mem_ctrls.bytesWrittenSys                    0                       # Total written bytes from the system interface side
system.mem_ctrls.servicedByWrQ                      0                       # Number of DRAM read bursts serviced by the write queue
system.mem_ctrls.mergedWrBursts                     0                       # Number of DRAM write bursts merged with an existing one
system.mem_ctrls.neitherReadNorWriteReqs            0                       # Number of requests that are neither read nor write
system.mem_ctrls.perBankRdBursts::0              1128                       # Per bank write bursts
system.mem_ctrls.perBankRdBursts::1              1061                       # Per bank write bursts
system.mem_ctrls.perBankRdBursts::2               962                       # Per bank write bursts
system.mem_ctrls.perBankRdBursts::3               808                       # Per bank write bursts
system.mem_ctrls.perBankRdBursts::4               768                       # Per bank write bursts
system.mem_ctrls.perBankRdBursts::5               981                       # Per bank write bursts
system.mem_ctrls.perBankRdBursts::6              1104                       # Per bank write bursts
system.mem_ctrls.perBankRdBursts::7              1135                       # Per bank write bursts
system.mem_ctrls.perBankRdBursts::8              1074                       # Per bank write bursts
system.mem_ctrls.perBankRdBursts::9               981                       # Per bank write bursts
system.mem_ctrls.perBankRdBursts::10              894                       # Per bank write bursts
system.mem_ctrls.perBankRdBursts::11              852                       # Per bank write bursts
system.mem_ctrls.perBankRdBursts::12              934                       # Per bank write bursts
system.mem_ctrls.perBankRdBursts::13             1091                       # Per bank write bursts
system.mem_ctrls.perBankRdBursts::14             1152                       # Per bank write bursts
system.mem_ctrls.perBankRdBursts::15             1140                       # Per bank write bursts
system.mem_ctrls.perBankWrBursts::0                 0                       # Per bank write bursts
system.mem_ctrls.perBankWrBursts::1                 0                       # Per bank write bursts
system.mem_ctrls.perBankWrBursts::2                 0                       # Per bank write bursts
system.mem_ctrls.perBankWrBursts::3                 0                       # Per bank write bursts
system.mem_ctrls.perBankWrBursts::4                 0                       # Per bank write bursts
system.mem_ctrls.perBankWrBursts::5                 0                       # Per bank write bursts
system.mem_ctrls.perBankWrBursts::6                 0                       # Per bank write bursts
system.mem_ctrls.perBankWrBursts::7                 0                       # Per bank write bursts
system.mem_ctrls.perBankWrBursts::8                 0                       # Per bank write bursts
system.mem_ctrls.perBankWrBursts::9                 0                       # Per bank write bursts
system.mem_ctrls.perBankWrBursts::10                0                       # Per bank write bursts
system.mem_ctrls.perBankWrBursts::11                0                       # Per bank write bursts
system.mem_ctrls.perBankWrBursts::12                0                       # Per bank write bursts
system.mem_ctrls.perBankWrBursts::13                0                       # Per bank write bursts
system.mem_ctrls.perBankWrBursts::14                0                       # Per bank write bursts
system.mem_ctrls.perBankWrBursts::15                0                       # Per bank write bursts
system.mem_ctrls.numRdRetry                         0                       # Number of times read queue was full causing retry
system.mem_ctrls.numWrRetry                         0                       # Number of times write queue was full causing retry
system.mem_ctrls.totGap                    6145269000                       # Total gap between requests
system.mem_ctrls.readPktSize::0                     0                       # Read request sizes (log2)
system.mem_ctrls.readPktSize::1                     0                       # Read request sizes (log2)
system.mem_ctrls.readPktSize::2                     0                       # Read request sizes (log2)
system.mem_ctrls.readPktSize::3                     0                       # Read request sizes (log2)
system.mem_ctrls.readPktSize::4                     0                       # Read request sizes (log2)
system.mem_ctrls.readPktSize::5                     0                       # Read request sizes (log2)
system.mem_ctrls.readPktSize::6                 16065                       # Read request sizes (log2)
system.mem_ctrls.writePktSize::0                    0                       # Write request sizes (log2)
system.mem_ctrls.writePktSize::1                    0                       # Write request sizes (log2)
system.mem_ctrls.writePktSize::2                    0                       # Write request sizes (log2)
system.mem_ctrls.writePktSize::3                    0                       # Write request sizes (log2)
system.mem_ctrls.writePktSize::4                    0                       # Write request sizes (log2)
system.mem_ctrls.writePktSize::5                    0                       # Write request sizes (log2)
system.mem_ctrls.writePktSize::6                    0                       # Write request sizes (log2)
system.mem_ctrls.rdQLenPdf::0                    3602                       # What read queue length does an incoming req see
system.mem_ctrls.rdQLenPdf::1                    2843                       # What read queue length does an incoming req see
system.mem_ctrls.rdQLenPdf::2                    2533                       # What read queue length does an incoming req see
system.mem_ctrls.rdQLenPdf::3                    1873                       # What read queue length does an incoming req see
system.mem_ctrls.rdQLenPdf::4                    1408                       # What read queue length does an incoming req see
system.mem_ctrls.rdQLenPdf::5                     976                       # What read queue length does an incoming req see
system.mem_ctrls.rdQLenPdf::6                     872                       # What read queue length does an incoming req see
system.mem_ctrls.rdQLenPdf::7                     759                       # What read queue length does an incoming req see
system.mem_ctrls.rdQLenPdf::8                     518                       # What read queue length does an incoming req see
system.mem_ctrls.rdQLenPdf::9                     284                       # What read queue length does an incoming req see
system.mem_ctrls.rdQLenPdf::10                    201                       # What read queue length does an incoming req see
system.mem_ctrls.rdQLenPdf::11                    114                       # What read queue length does an incoming req see
system.mem_ctrls.rdQLenPdf::12                     48                       # What read queue length does an incoming req see
system.mem_ctrls.rdQLenPdf::13                     18                       # What read queue length does an incoming req see
system.mem_ctrls.rdQLenPdf::14                      5                       # What read queue length does an incoming req see
system.mem_ctrls.rdQLenPdf::15                      2                       # What read queue length does an incoming req see
system.mem_ctrls.rdQLenPdf::16                      3                       # What read queue length does an incoming req see
system.mem_ctrls.rdQLenPdf::17                      3                       # What read queue length does an incoming req see
system.mem_ctrls.rdQLenPdf::18                      2                       # What read queue length does an incoming req see
system.mem_ctrls.rdQLenPdf::19                      1                       # What read queue length does an incoming req see
system.mem_ctrls.rdQLenPdf::20                      0                       # What read queue length does an incoming req see
system.mem_ctrls.rdQLenPdf::21                      0                       # What read queue length does an incoming req see
system.mem_ctrls.rdQLenPdf::22                      0                       # What read queue length does an incoming req see
system.mem_ctrls.rdQLenPdf::23                      0                       # What read queue length does an incoming req see
system.mem_ctrls.rdQLenPdf::24                      0                       # What read queue length does an incoming req see
system.mem_ctrls.rdQLenPdf::25                      0                       # What read queue length does an incoming req see
system.mem_ctrls.rdQLenPdf::26                      0                       # What read queue length does an incoming req see
system.mem_ctrls.rdQLenPdf::27                      0                       # What read queue length does an incoming req see
system.mem_ctrls.rdQLenPdf::28                      0                       # What read queue length does an incoming req see
system.mem_ctrls.rdQLenPdf::29                      0                       # What read queue length does an incoming req see
system.mem_ctrls.rdQLenPdf::30                      0                       # What read queue length does an incoming req see
system.mem_ctrls.rdQLenPdf::31                      0                       # What read queue length does an incoming req see
system.mem_ctrls.wrQLenPdf::0                       0                       # What write queue length does an incoming req see
system.mem_ctrls.wrQLenPdf::1                       0                       # What write queue length does an incoming req see
system.mem_ctrls.wrQLenPdf::2                       0                       # What write queue length does an incoming req see
system.mem_ctrls.wrQLenPdf::3                       0                       # What write queue length does an incoming req see
system.mem_ctrls.wrQLenPdf::4                       0                       # What write queue length does an incoming req see
system.mem_ctrls.wrQLenPdf::5                       0                       # What write queue length does an incoming req see
system.mem_ctrls.wrQLenPdf::6                       0                       # What write queue length does an incoming req see
system.mem_ctrls.wrQLenPdf::7                       0                       # What write queue length does an incoming req see
system.mem_ctrls.wrQLenPdf::8                       0                       # What write queue length does an incoming req see
system.mem_ctrls.wrQLenPdf::9                       0                       # What write queue length does an incoming req see
system.mem_ctrls.wrQLenPdf::10                      0                       # What write queue length does an incoming req see
system.mem_ctrls.wrQLenPdf::11                      0                       # What write queue length does an incoming req see
system.mem_ctrls.wrQLenPdf::12                      0                       # What write queue length does an incoming req see
system.mem_ctrls.wrQLenPdf::13                      0                       # What write queue length does an incoming req see
system.mem_ctrls.wrQLenPdf::14                      0                       # What write queue length does an incoming req see
system.mem_ctrls.wrQLenPdf::15                      0                       # What write queue length does an incoming req see
system.mem_ctrls.wrQLenPdf::16                      0                       # What write queue length does an incoming req see
system.mem_ctrls.wrQLenPdf::17                      0                       # What write queue length does an incoming req see
system.mem_ctrls.wrQLenPdf::18                      0                       # What write queue length does an incoming req see
system.mem_ctrls.wrQLenPdf::19                      0                       # What write queue length does an incoming req see
system.mem_ctrls.wrQLenPdf::20                      0                       # What write queue length does an incoming req see
system.mem_ctrls.wrQLenPdf::21                      0                       # What write queue length does an incoming req see
system.mem_ctrls.wrQLenPdf::22                      0                       # What write queue length does an incoming req see
system.mem_ctrls.wrQLenPdf::23                      0                       # What write queue length does an incoming req see
system.mem_ctrls.wrQLenPdf::24                      0                       # What write queue length does an incoming req see
system.mem_ctrls.wrQLenPdf::25                      0                       # What write queue length does an incoming req see
system.mem_ctrls.wrQLenPdf::26                      0                       # What write queue length does an incoming req see
system.mem_ctrls.wrQLenPdf::27                      0                       # What write queue length does an incoming req see
system.mem_ctrls.wrQLenPdf::28                      0                       # What write queue length does an incoming req see
system.mem_ctrls.wrQLenPdf::29                      0                       # What write queue length does an incoming req see
system.mem_ctrls.wrQLenPdf::30                      0                       # What write queue length does an incoming req see
system.mem_ctrls.wrQLenPdf::31                      0                       # What write queue length does an incoming req see
system.mem_ctrls.wrQLenPdf::32                      0                       # What write queue length does an incoming req see
system.mem_ctrls.wrQLenPdf::33                      0                       # What write queue length does an incoming req see
system.mem_ctrls.wrQLenPdf::34                      0                       # What write queue length does an incoming req see
system.mem_ctrls.wrQLenPdf::35                      0                       # What write queue length does an incoming req see
system.mem_ctrls.wrQLenPdf::36                      0                       # What write queue length does an incoming req see
system.mem_ctrls.wrQLenPdf::37                      0                       # What write queue length does an incoming req see
system.mem_ctrls.wrQLenPdf::38                      0                       # What write queue length does an incoming req see
system.mem_ctrls.wrQLenPdf::39                      0                       # What write queue length does an incoming req see
system.mem_ctrls.wrQLenPdf::40                      0                       # What write queue length does an incoming req see
system.mem_ctrls.wrQLenPdf::41                      0                       # What write queue length does an incoming req see
system.mem_ctrls.wrQLenPdf::42                      0                       # What write queue length does an incoming req see
system.mem_ctrls.wrQLenPdf::43                      0                       # What write queue length does an incoming req see
system.mem_ctrls.wrQLenPdf::44                      0                       # What write queue length does an incoming req see
system.mem_ctrls.wrQLenPdf::45                      0                       # What write queue length does an incoming req see
system.mem_ctrls.wrQLenPdf::46                      0                       # What write queue length does an incoming req see
system.mem_ctrls.wrQLenPdf::47                      0                       # What write queue length does an incoming req see
system.mem_ctrls.wrQLenPdf::48                      0                       # What write queue length does an incoming req see
system.mem_ctrls.wrQLenPdf::49                      0                       # What write queue length does an incoming req see
system.mem_ctrls.wrQLenPdf::50                      0                       # What write queue length does an incoming req see
system.mem_ctrls.wrQLenPdf::51                      0                       # What write queue length does an incoming req see
system.mem_ctrls.wrQLenPdf::52                      0                       # What write queue length does an incoming req see
system.mem_ctrls.wrQLenPdf::53                      0                       # What write queue length does an incoming req see
system.mem_ctrls.wrQLenPdf::54                      0                       # What write queue length does an incoming req see
system.mem_ctrls.wrQLenPdf::55                      0                       # What write queue length does an incoming req see
system.mem_ctrls.wrQLenPdf::56                      0                       # What write queue length does an incoming req see
system.mem_ctrls.wrQLenPdf::57                      0                       # What write queue length does an incoming req see
system.mem_ctrls.wrQLenPdf::58                      0                       # What write queue length does an incoming req see
system.mem_ctrls.wrQLenPdf::59                      0                       # What write queue length does an incoming req see
system.mem_ctrls.wrQLenPdf::60                      0                       # What write queue length does an incoming req see
system.mem_ctrls.wrQLenPdf::61                      0                       # What write queue length does an incoming req see
system.mem_ctrls.wrQLenPdf::62                      0                       # What write queue length does an incoming req see
system.mem_ctrls.wrQLenPdf::63                      0                       # What write queue length does an incoming req see
system.mem_ctrls.bytesPerActivate::samples         4565                       # Bytes accessed per row activation
system.mem_ctrls.bytesPerActivate::mean    224.904272                       # Bytes accessed per row activation
system.mem_ctrls.bytesPerActivate::gmean   132.076246                       # Bytes accessed per row activation
system.mem_ctrls.bytesPerActivate::stdev   284.878341                       # Bytes accessed per row activation
system.mem_ctrls.bytesPerActivate::0-127         2380     52.14%     52.14% # Bytes accessed per row activation
system.mem_ctrls.bytesPerActivate::128-255         1110     24.32%     76.45% # Bytes accessed per row activation
system.mem_ctrls.bytesPerActivate::256-383          283      6.20%     82.65% # Bytes accessed per row activation
system.mem_ctrls.bytesPerActivate::384-511          140      3.07%     85.72% # Bytes accessed per row activation
system.mem_ctrls.bytesPerActivate::512-639          115      2.52%     88.24% # Bytes accessed per row activation
system.mem_ctrls.bytesPerActivate::640-767           86      1.88%     90.12% # Bytes accessed per row activation
system.mem_ctrls.bytesPerActivate::768-895           53      1.16%     91.28% # Bytes accessed per row activation
system.mem_ctrls.bytesPerActivate::896-1023           30      0.66%     91.94% # Bytes accessed per row activation
system.mem_ctrls.bytesPerActivate::1024-1151          368      8.06%    100.00% # Bytes accessed per row activation
system.mem_ctrls.bytesPerActivate::total         4565                       # Bytes accessed per row activation
system.mem_ctrls.totQLat                    439533390                       # Total ticks spent queuing
system.mem_ctrls.totMemAccLat               740752140                       # Total ticks spent from burst creation until serviced by the DRAM
system.mem_ctrls.totBusLat                   80325000                       # Total ticks spent in databus transfers
system.mem_ctrls.avgQLat                     27359.69                       # Average queueing delay per DRAM burst
system.mem_ctrls.avgBusLat                    5000.00                       # Average bus latency per DRAM burst
system.mem_ctrls.avgMemAccLat                46109.69                       # Average memory access latency per DRAM burst
system.mem_ctrls.avgRdBW                       167.31                       # Average DRAM read bandwidth in MiByte/s
system.mem_ctrls.avgWrBW                         0.00                       # Average achieved write bandwidth in MiByte/s
system.mem_ctrls.avgRdBWSys                    167.31                       # Average system read bandwidth in MiByte/s
system.mem_ctrls.avgWrBWSys                      0.00                       # Average system write bandwidth in MiByte/s
system.mem_ctrls.peakBW                      12800.00                       # Theoretical peak bandwidth in MiByte/s
system.mem_ctrls.busUtil                         1.31                       # Data bus utilization in percentage
system.mem_ctrls.busUtilRead                     1.31                       # Data bus utilization in percentage for reads
system.mem_ctrls.busUtilWrite                    0.00                       # Data bus utilization in percentage for writes
system.mem_ctrls.avgRdQLen                       1.12                       # Average read queue length when enqueuing
system.mem_ctrls.avgWrQLen                       0.00                       # Average write queue length when enqueuing
system.mem_ctrls.readRowHits                    11490                       # Number of row buffer hits during reads
system.mem_ctrls.writeRowHits                       0                       # Number of row buffer hits during writes
system.mem_ctrls.readRowHitRate                 71.52                       # Row buffer hit rate for reads
system.mem_ctrls.writeRowHitRate                  nan                       # Row buffer hit rate for writes
system.mem_ctrls.avgGap                     382525.30                       # Average gap between requests
system.mem_ctrls.pageHitRate                    71.52                       # Row buffer hit rate, read and write combined
system.mem_ctrls_0.actEnergy                 16529100                       # Energy for activate commands per rank (pJ)
system.mem_ctrls_0.preEnergy                  8762655                       # Energy for precharge commands per rank (pJ)
system.mem_ctrls_0.readEnergy                56741580                       # Energy for read commands per rank (pJ)
system.mem_ctrls_0.writeEnergy                      0                       # Energy for write commands per rank (pJ)
system.mem_ctrls_0.refreshEnergy         33805200.000000                       # Energy for refresh commands per rank (pJ)
system.mem_ctrls_0.actBackEnergy             86667360                       # Energy for active background per rank (pJ)
system.mem_ctrls_0.preBackEnergy              1430880                       # Energy for precharge background per rank (pJ)
system.mem_ctrls_0.actPowerDownEnergy        73560210                       # Energy for active power-down per rank (pJ)
system.mem_ctrls_0.prePowerDownEnergy        15479520                       # Energy for precharge power-down per rank (pJ)
system.mem_ctrls_0.selfRefreshEnergy       1382742300                       # Energy for self refresh per rank (pJ)
system.mem_ctrls_0.totalEnergy             1675718805                       # Total energy per rank (pJ)
system.mem_ctrls_0.averagePower            272.681441                       # Core power per rank (mW)
system.mem_ctrls_0.totalIdleTime           5951556278                       # Total Idle time Per DRAM Rank
system.mem_ctrls_0.memoryStateTime::IDLE      1694750                       # Time in different power states
system.mem_ctrls_0.memoryStateTime::REF      14330000                       # Time in different power states
system.mem_ctrls_0.memoryStateTime::SREF   5749920500                       # Time in different power states
system.mem_ctrls_0.memoryStateTime::PRE_PDN     40313500                       # Time in different power states
system.mem_ctrls_0.memoryStateTime::ACT     177723222                       # Time in different power states
system.mem_ctrls_0.memoryStateTime::ACT_PDN    161352528                       # Time in different power states
system.mem_ctrls_1.actEnergy                 16136400                       # Energy for activate commands per rank (pJ)
system.mem_ctrls_1.preEnergy                  8561520                       # Energy for precharge commands per rank (pJ)
system.mem_ctrls_1.readEnergy                57962520                       # Energy for read commands per rank (pJ)
system.mem_ctrls_1.writeEnergy                      0                       # Energy for write commands per rank (pJ)
system.mem_ctrls_1.refreshEnergy         39951600.000000                       # Energy for refresh commands per rank (pJ)
system.mem_ctrls_1.actBackEnergy             86052330                       # Energy for active background per rank (pJ)
system.mem_ctrls_1.preBackEnergy              1691040                       # Energy for precharge background per rank (pJ)
system.mem_ctrls_1.actPowerDownEnergy       105259050                       # Energy for active power-down per rank (pJ)
system.mem_ctrls_1.prePowerDownEnergy        16542720                       # Energy for precharge power-down per rank (pJ)
system.mem_ctrls_1.selfRefreshEnergy       1366107540                       # Energy for self refresh per rank (pJ)
system.mem_ctrls_1.totalEnergy             1698264720                       # Total energy per rank (pJ)
system.mem_ctrls_1.averagePower            276.350227                       # Core power per rank (mW)
system.mem_ctrls_1.totalIdleTime           5952070029                       # Total Idle time Per DRAM Rank
system.mem_ctrls_1.memoryStateTime::IDLE      1976001                       # Time in different power states
system.mem_ctrls_1.memoryStateTime::REF      16936000                       # Time in different power states
system.mem_ctrls_1.memoryStateTime::SREF   5678309750                       # Time in different power states
system.mem_ctrls_1.memoryStateTime::PRE_PDN     43076000                       # Time in different power states
system.mem_ctrls_1.memoryStateTime::ACT     174200720                       # Time in different power states
system.mem_ctrls_1.memoryStateTime::ACT_PDN    230836029                       # Time in different power states
system.pwrStateResidencyTicks::UNDEFINED   6145334500                       # Cumulative time (in ticks) in various power states
system.cpu0.branchPred.lookups                 893666                       # Number of BP lookups
system.cpu0.branchPred.condPredicted           893666                       # Number of conditional branches predicted
system.cpu0.branchPred.condIncorrect             8435                       # Number of conditional branches incorrect
system.cpu0.branchPred.BTBLookups              550226                       # Number of BTB lookups
system.cpu0.branchPred.BTBHits                      0                       # Number of BTB hits
system.cpu0.branchPred.BTBCorrect                   0                       # Number of correct BTB predictions (this stat may not work properly.
system.cpu0.branchPred.BTBHitPct             0.000000                       # BTB Hit Percentage
system.cpu0.branchPred.usedRAS                   2325                       # Number of times the RAS was used to get a target.
system.cpu0.branchPred.RASInCorrect               460                       # Number of incorrect RAS predictions.
system.cpu0.branchPred.indirectLookups         550226                       # Number of indirect predictor lookups.
system.cpu0.branchPred.indirectHits            426598                       # Number of indirect target hits.
system.cpu0.branchPred.indirectMisses          123628                       # Number of indirect misses.
system.cpu0.branchPredindirectMispredicted         4470                       # Number of mispredicted indirect branches.
system.cpu_voltage_domain.voltage                   1                       # Voltage in Volts
system.cpu0.clk_domain.clock                      500                       # Clock period in ticks
system.cpu0.dtb.walker.pwrStateResidencyTicks::UNDEFINED   6145334500                       # Cumulative time (in ticks) in various power states
system.cpu0.apic_clk_domain.clock                8000                       # Clock period in ticks
system.cpu0.interrupts.pwrStateResidencyTicks::UNDEFINED   6145334500                       # Cumulative time (in ticks) in various power states
system.cpu0.itb.walker.pwrStateResidencyTicks::UNDEFINED   6145334500                       # Cumulative time (in ticks) in various power states
system.cpu0.workload.num_syscalls                  40                       # Number of system calls
system.cpu0.pwrStateResidencyTicks::ON     6145334500                       # Cumulative time (in ticks) in various power states
system.cpu0.numCycles                         3366866                       # number of cpu cycles simulated
system.cpu0.numWorkItemsStarted                     0                       # number of work items this cpu started
system.cpu0.numWorkItemsCompleted                   0                       # number of work items this cpu completed
system.cpu0.fetch.icacheStallCycles            875614                       # Number of cycles fetch is stalled on an Icache miss
system.cpu0.fetch.Insts                       2819797                       # Number of instructions fetch has processed
system.cpu0.fetch.Branches                     893666                       # Number of branches that fetch encountered
system.cpu0.fetch.predictedBranches            428923                       # Number of branches that fetch has predicted taken
system.cpu0.fetch.Cycles                      2379222                       # Number of cycles fetch has run and was not squashing or blocked
system.cpu0.fetch.SquashCycles                  17077                       # Number of cycles fetch has spent squashing
system.cpu0.fetch.MiscStallCycles               10116                       # Number of cycles fetch has spent waiting on interrupts, or bad addresses, or out of MSHRs
system.cpu0.fetch.NoActiveThreadStallCycles           10                       # Number of stall cycles due to no active thread to fetch from
system.cpu0.fetch.PendingTrapStallCycles          770                       # Number of stall cycles due to pending traps
system.cpu0.fetch.PendingQuiesceStallCycles           15                       # Number of stall cycles due to pending quiesce instructions
system.cpu0.fetch.IcacheWaitRetryStallCycles         6344                       # Number of stall cycles due to full MSHR
system.cpu0.fetch.CacheLines                   847787                       # Number of cache lines fetched
system.cpu0.fetch.IcacheSquashes                 2513                       # Number of outstanding Icache misses that were squashed
system.cpu0.fetch.rateDist::samples           3280629                       # Number of instructions fetched each cycle (Total)
system.cpu0.fetch.rateDist::mean             1.703048                       # Number of instructions fetched each cycle (Total)
system.cpu0.fetch.rateDist::stdev            2.933895                       # Number of instructions fetched each cycle (Total)
system.cpu0.fetch.rateDist::underflows              0      0.00%      0.00% # Number of instructions fetched each cycle (Total)
system.cpu0.fetch.rateDist::0                 2359509     71.92%     71.92% # Number of instructions fetched each cycle (Total)
system.cpu0.fetch.rateDist::1                    8057      0.25%     72.17% # Number of instructions fetched each cycle (Total)
system.cpu0.fetch.rateDist::2                    3430      0.10%     72.27% # Number of instructions fetched each cycle (Total)
system.cpu0.fetch.rateDist::3                    8212      0.25%     72.52% # Number of instructions fetched each cycle (Total)
system.cpu0.fetch.rateDist::4                  405351     12.36%     84.88% # Number of instructions fetched each cycle (Total)
system.cpu0.fetch.rateDist::5                    8067      0.25%     85.12% # Number of instructions fetched each cycle (Total)
system.cpu0.fetch.rateDist::6                    6180      0.19%     85.31% # Number of instructions fetched each cycle (Total)
system.cpu0.fetch.rateDist::7                    5886      0.18%     85.49% # Number of instructions fetched each cycle (Total)
system.cpu0.fetch.rateDist::8                  475937     14.51%    100.00% # Number of instructions fetched each cycle (Total)
system.cpu0.fetch.rateDist::overflows               0      0.00%    100.00% # Number of instructions fetched each cycle (Total)
system.cpu0.fetch.rateDist::min_value               0                       # Number of instructions fetched each cycle (Total)
system.cpu0.fetch.rateDist::max_value               8                       # Number of instructions fetched each cycle (Total)
system.cpu0.fetch.rateDist::total             3280629                       # Number of instructions fetched each cycle (Total)
system.cpu0.fetch.branchRate                 0.265430                       # Number of branch fetches per cycle
system.cpu0.fetch.rate                       0.837514                       # Number of inst fetches per cycle
system.cpu0.decode.IdleCycles                  276948                       # Number of cycles decode is idle
system.cpu0.decode.BlockedCycles              2296277                       # Number of cycles decode is blocked
system.cpu0.decode.RunCycles                    86586                       # Number of cycles decode is running
system.cpu0.decode.UnblockCycles               612270                       # Number of cycles decode is unblocking
system.cpu0.decode.SquashCycles                  8538                       # Number of cycles decode is squashing
system.cpu0.decode.DecodedInsts               5505183                       # Number of instructions handled by decode
system.cpu0.rename.SquashCycles                  8538                       # Number of cycles rename is squashing
system.cpu0.rename.IdleCycles                  310567                       # Number of cycles rename is idle
system.cpu0.rename.BlockCycles                1421577                       # Number of cycles rename is blocking
system.cpu0.rename.serializeStallCycles          3221                       # count of cycles rename stalled for serializing inst
system.cpu0.rename.RunCycles                   289429                       # Number of cycles rename is running
system.cpu0.rename.UnblockCycles              1247287                       # Number of cycles rename is unblocking
system.cpu0.rename.RenamedInsts               5464566                       # Number of instructions processed by rename
system.cpu0.rename.ROBFullEvents               776773                       # Number of times rename has blocked due to ROB full
system.cpu0.rename.IQFullEvents                 12562                       # Number of times rename has blocked due to IQ full
system.cpu0.rename.LQFullEvents                264267                       # Number of times rename has blocked due to LQ full
system.cpu0.rename.SQFullEvents                 31413                       # Number of times rename has blocked due to SQ full
system.cpu0.rename.RenamedOperands            6427696                       # Number of destination operands rename has renamed
system.cpu0.rename.RenameLookups             11701894                       # Number of register rename lookups that rename has made
system.cpu0.rename.int_rename_lookups         5778904                       # Number of integer rename lookups
system.cpu0.rename.fp_rename_lookups            18380                       # Number of floating rename lookups
system.cpu0.rename.CommittedMaps              5936167                       # Number of HB maps that are committed
system.cpu0.rename.UndoneMaps                  491529                       # Number of HB maps that are undone due to squashing
system.cpu0.rename.serializingInsts                82                       # count of serializing insts renamed
system.cpu0.rename.tempSerializingInsts            82                       # count of temporary serializing insts renamed
system.cpu0.rename.skidInsts                  4045373                       # count of insts added to the skid buffer
system.cpu0.memDep0.insertedLoads              881126                       # Number of loads inserted to the mem dependence unit.
system.cpu0.memDep0.insertedStores              20882                       # Number of stores inserted to the mem dependence unit.
system.cpu0.memDep0.conflictingLoads             1322                       # Number of conflicting loads.
system.cpu0.memDep0.conflictingStores             178                       # Number of conflicting stores.
system.cpu0.iq.iqInstsAdded                   5391681                       # Number of instructions added to the IQ (excludes non-spec)
system.cpu0.iq.iqNonSpecInstsAdded                198                       # Number of non-speculative instructions added to the IQ
system.cpu0.iq.iqInstsIssued                  5392902                       # Number of instructions issued
system.cpu0.iq.iqSquashedInstsIssued             6459                       # Number of squashed instructions issued
system.cpu0.iq.iqSquashedInstsExamined         324923                       # Number of squashed instructions iterated over during squash; mainly for profiling
system.cpu0.iq.iqSquashedOperandsExamined       491157                       # Number of squashed operands that are examined and possibly removed from graph
system.cpu0.iq.iqSquashedNonSpecRemoved           128                       # Number of squashed non-spec instructions that were removed
system.cpu0.iq.issued_per_cycle::samples      3280629                       # Number of insts issued each cycle
system.cpu0.iq.issued_per_cycle::mean        1.643862                       # Number of insts issued each cycle
system.cpu0.iq.issued_per_cycle::stdev       1.470383                       # Number of insts issued each cycle
system.cpu0.iq.issued_per_cycle::underflows            0      0.00%      0.00% # Number of insts issued each cycle
system.cpu0.iq.issued_per_cycle::0             906220     27.62%     27.62% # Number of insts issued each cycle
system.cpu0.iq.issued_per_cycle::1             817499     24.92%     52.54% # Number of insts issued each cycle
system.cpu0.iq.issued_per_cycle::2             625777     19.07%     71.62% # Number of insts issued each cycle
system.cpu0.iq.issued_per_cycle::3             548439     16.72%     88.33% # Number of insts issued each cycle
system.cpu0.iq.issued_per_cycle::4             312297      9.52%     97.85% # Number of insts issued each cycle
system.cpu0.iq.issued_per_cycle::5              28098      0.86%     98.71% # Number of insts issued each cycle
system.cpu0.iq.issued_per_cycle::6              19084      0.58%     99.29% # Number of insts issued each cycle
system.cpu0.iq.issued_per_cycle::7              11370      0.35%     99.64% # Number of insts issued each cycle
system.cpu0.iq.issued_per_cycle::8              11845      0.36%    100.00% # Number of insts issued each cycle
system.cpu0.iq.issued_per_cycle::overflows            0      0.00%    100.00% # Number of insts issued each cycle
system.cpu0.iq.issued_per_cycle::min_value            0                       # Number of insts issued each cycle
system.cpu0.iq.issued_per_cycle::max_value            8                       # Number of insts issued each cycle
system.cpu0.iq.issued_per_cycle::total        3280629                       # Number of insts issued each cycle
system.cpu0.iq.fu_full::No_OpClass                  0      0.00%      0.00% # attempts to use FU when none available
system.cpu0.iq.fu_full::IntAlu                   5481     24.70%     24.70% # attempts to use FU when none available
system.cpu0.iq.fu_full::IntMult                     0      0.00%     24.70% # attempts to use FU when none available
system.cpu0.iq.fu_full::IntDiv                      0      0.00%     24.70% # attempts to use FU when none available
system.cpu0.iq.fu_full::FloatAdd                   47      0.21%     24.92% # attempts to use FU when none available
system.cpu0.iq.fu_full::FloatCmp                    0      0.00%     24.92% # attempts to use FU when none available
system.cpu0.iq.fu_full::FloatCvt                    0      0.00%     24.92% # attempts to use FU when none available
system.cpu0.iq.fu_full::FloatMult                   0      0.00%     24.92% # attempts to use FU when none available
system.cpu0.iq.fu_full::FloatMultAcc                0      0.00%     24.92% # attempts to use FU when none available
system.cpu0.iq.fu_full::FloatDiv                    0      0.00%     24.92% # attempts to use FU when none available
system.cpu0.iq.fu_full::FloatMisc                   0      0.00%     24.92% # attempts to use FU when none available
system.cpu0.iq.fu_full::FloatSqrt                   0      0.00%     24.92% # attempts to use FU when none available
system.cpu0.iq.fu_full::SimdAdd                     0      0.00%     24.92% # attempts to use FU when none available
system.cpu0.iq.fu_full::SimdAddAcc                  0      0.00%     24.92% # attempts to use FU when none available
system.cpu0.iq.fu_full::SimdAlu                     0      0.00%     24.92% # attempts to use FU when none available
system.cpu0.iq.fu_full::SimdCmp                     0      0.00%     24.92% # attempts to use FU when none available
system.cpu0.iq.fu_full::SimdCvt                     0      0.00%     24.92% # attempts to use FU when none available
system.cpu0.iq.fu_full::SimdMisc                    0      0.00%     24.92% # attempts to use FU when none available
system.cpu0.iq.fu_full::SimdMult                    0      0.00%     24.92% # attempts to use FU when none available
system.cpu0.iq.fu_full::SimdMultAcc                 0      0.00%     24.92% # attempts to use FU when none available
system.cpu0.iq.fu_full::SimdShift                   0      0.00%     24.92% # attempts to use FU when none available
system.cpu0.iq.fu_full::SimdShiftAcc                0      0.00%     24.92% # attempts to use FU when none available
system.cpu0.iq.fu_full::SimdSqrt                    0      0.00%     24.92% # attempts to use FU when none available
system.cpu0.iq.fu_full::SimdFloatAdd                0      0.00%     24.92% # attempts to use FU when none available
system.cpu0.iq.fu_full::SimdFloatAlu                0      0.00%     24.92% # attempts to use FU when none available
system.cpu0.iq.fu_full::SimdFloatCmp                0      0.00%     24.92% # attempts to use FU when none available
system.cpu0.iq.fu_full::SimdFloatCvt                0      0.00%     24.92% # attempts to use FU when none available
system.cpu0.iq.fu_full::SimdFloatDiv                0      0.00%     24.92% # attempts to use FU when none available
system.cpu0.iq.fu_full::SimdFloatMisc               0      0.00%     24.92% # attempts to use FU when none available
system.cpu0.iq.fu_full::SimdFloatMult               0      0.00%     24.92% # attempts to use FU when none available
system.cpu0.iq.fu_full::SimdFloatMultAcc            0      0.00%     24.92% # attempts to use FU when none available
system.cpu0.iq.fu_full::SimdFloatSqrt               0      0.00%     24.92% # attempts to use FU when none available
system.cpu0.iq.fu_full::MemRead                 15810     71.26%     96.17% # attempts to use FU when none available
system.cpu0.iq.fu_full::MemWrite                  701      3.16%     99.33% # attempts to use FU when none available
system.cpu0.iq.fu_full::FloatMemRead              103      0.46%     99.80% # attempts to use FU when none available
system.cpu0.iq.fu_full::FloatMemWrite              45      0.20%    100.00% # attempts to use FU when none available
system.cpu0.iq.fu_full::IprAccess                   0      0.00%    100.00% # attempts to use FU when none available
system.cpu0.iq.fu_full::InstPrefetch                0      0.00%    100.00% # attempts to use FU when none available
system.cpu0.iq.FU_type_0::No_OpClass             4183      0.08%      0.08% # Type of FU issued
system.cpu0.iq.FU_type_0::IntAlu              4386034     81.33%     81.41% # Type of FU issued
system.cpu0.iq.FU_type_0::IntMult                 114      0.00%     81.41% # Type of FU issued
system.cpu0.iq.FU_type_0::IntDiv                 1220      0.02%     81.43% # Type of FU issued
system.cpu0.iq.FU_type_0::FloatAdd               4384      0.08%     81.51% # Type of FU issued
system.cpu0.iq.FU_type_0::FloatCmp                  0      0.00%     81.51% # Type of FU issued
system.cpu0.iq.FU_type_0::FloatCvt                  0      0.00%     81.51% # Type of FU issued
system.cpu0.iq.FU_type_0::FloatMult                 0      0.00%     81.51% # Type of FU issued
system.cpu0.iq.FU_type_0::FloatMultAcc              0      0.00%     81.51% # Type of FU issued
system.cpu0.iq.FU_type_0::FloatDiv                  0      0.00%     81.51% # Type of FU issued
system.cpu0.iq.FU_type_0::FloatMisc                 0      0.00%     81.51% # Type of FU issued
system.cpu0.iq.FU_type_0::FloatSqrt                 0      0.00%     81.51% # Type of FU issued
system.cpu0.iq.FU_type_0::SimdAdd                   0      0.00%     81.51% # Type of FU issued
system.cpu0.iq.FU_type_0::SimdAddAcc                0      0.00%     81.51% # Type of FU issued
system.cpu0.iq.FU_type_0::SimdAlu                   0      0.00%     81.51% # Type of FU issued
system.cpu0.iq.FU_type_0::SimdCmp                   0      0.00%     81.51% # Type of FU issued
system.cpu0.iq.FU_type_0::SimdCvt                   0      0.00%     81.51% # Type of FU issued
system.cpu0.iq.FU_type_0::SimdMisc                  0      0.00%     81.51% # Type of FU issued
system.cpu0.iq.FU_type_0::SimdMult                  0      0.00%     81.51% # Type of FU issued
system.cpu0.iq.FU_type_0::SimdMultAcc               0      0.00%     81.51% # Type of FU issued
system.cpu0.iq.FU_type_0::SimdShift                 0      0.00%     81.51% # Type of FU issued
system.cpu0.iq.FU_type_0::SimdShiftAcc              0      0.00%     81.51% # Type of FU issued
system.cpu0.iq.FU_type_0::SimdSqrt                  0      0.00%     81.51% # Type of FU issued
system.cpu0.iq.FU_type_0::SimdFloatAdd              0      0.00%     81.51% # Type of FU issued
system.cpu0.iq.FU_type_0::SimdFloatAlu              0      0.00%     81.51% # Type of FU issued
system.cpu0.iq.FU_type_0::SimdFloatCmp              0      0.00%     81.51% # Type of FU issued
system.cpu0.iq.FU_type_0::SimdFloatCvt              0      0.00%     81.51% # Type of FU issued
system.cpu0.iq.FU_type_0::SimdFloatDiv              0      0.00%     81.51% # Type of FU issued
system.cpu0.iq.FU_type_0::SimdFloatMisc             0      0.00%     81.51% # Type of FU issued
system.cpu0.iq.FU_type_0::SimdFloatMult             0      0.00%     81.51% # Type of FU issued
system.cpu0.iq.FU_type_0::SimdFloatMultAcc            0      0.00%     81.51% # Type of FU issued
system.cpu0.iq.FU_type_0::SimdFloatSqrt             0      0.00%     81.51% # Type of FU issued
system.cpu0.iq.FU_type_0::MemRead              976174     18.10%     99.61% # Type of FU issued
system.cpu0.iq.FU_type_0::MemWrite              16398      0.30%     99.92% # Type of FU issued
system.cpu0.iq.FU_type_0::FloatMemRead           3967      0.07%     99.99% # Type of FU issued
system.cpu0.iq.FU_type_0::FloatMemWrite           428      0.01%    100.00% # Type of FU issued
system.cpu0.iq.FU_type_0::IprAccess                 0      0.00%    100.00% # Type of FU issued
system.cpu0.iq.FU_type_0::InstPrefetch              0      0.00%    100.00% # Type of FU issued
system.cpu0.iq.FU_type_0::total               5392902                       # Type of FU issued
system.cpu0.iq.rate                          1.601757                       # Inst issue rate
system.cpu0.iq.fu_busy_cnt                      22187                       # FU busy when requested
system.cpu0.iq.fu_busy_rate                  0.004114                       # FU busy rate (busy events/executed inst)
system.cpu0.iq.int_inst_queue_reads          14076758                       # Number of integer instruction queue reads
system.cpu0.iq.int_inst_queue_writes          5700533                       # Number of integer instruction queue writes
system.cpu0.iq.int_inst_queue_wakeup_accesses      5245394                       # Number of integer instruction queue wakeup accesses
system.cpu0.iq.fp_inst_queue_reads              18321                       # Number of floating instruction queue reads
system.cpu0.iq.fp_inst_queue_writes             16324                       # Number of floating instruction queue writes
system.cpu0.iq.fp_inst_queue_wakeup_accesses         6324                       # Number of floating instruction queue wakeup accesses
system.cpu0.iq.int_alu_accesses               5401796                       # Number of integer alu accesses
system.cpu0.iq.fp_alu_accesses                   9110                       # Number of floating point alu accesses
system.cpu0.iew.lsq.thread0.forwLoads            2817                       # Number of loads that had data forwarded from stores
system.cpu0.iew.lsq.thread0.invAddrLoads            0                       # Number of loads ignored due to an invalid address
system.cpu0.iew.lsq.thread0.squashedLoads        44533                       # Number of loads squashed
system.cpu0.iew.lsq.thread0.ignoredResponses           18                       # Number of memory responses ignored because the instruction is squashed
system.cpu0.iew.lsq.thread0.memOrderViolation           62                       # Number of memory ordering violations
system.cpu0.iew.lsq.thread0.squashedStores         9560                       # Number of stores squashed
system.cpu0.iew.lsq.thread0.invAddrSwpfs            0                       # Number of software prefetches ignored due to an invalid address
system.cpu0.iew.lsq.thread0.blockedLoads            0                       # Number of blocked loads due to partial load-store forwarding
system.cpu0.iew.lsq.thread0.rescheduledLoads            3                       # Number of loads that were rescheduled
system.cpu0.iew.lsq.thread0.cacheBlocked       111443                       # Number of times an access to memory failed due to the cache being blocked
system.cpu0.iew.iewIdleCycles                       0                       # Number of cycles IEW is idle
system.cpu0.iew.iewSquashCycles                  8538                       # Number of cycles IEW is squashing
system.cpu0.iew.iewBlockCycles                 112262                       # Number of cycles IEW is blocking
system.cpu0.iew.iewUnblockCycles                 5477                       # Number of cycles IEW is unblocking
system.cpu0.iew.iewDispatchedInsts            5391879                       # Number of instructions dispatched to IQ
system.cpu0.iew.iewDispSquashedInsts             2267                       # Number of squashed instructions skipped by dispatch
system.cpu0.iew.iewDispLoadInsts               881126                       # Number of dispatched load instructions
system.cpu0.iew.iewDispStoreInsts               20882                       # Number of dispatched store instructions
system.cpu0.iew.iewDispNonSpecInsts               112                       # Number of dispatched non-speculative instructions
system.cpu0.iew.iewIQFullEvents                   591                       # Number of times the IQ has become full, causing a stall
system.cpu0.iew.iewLSQFullEvents                 4523                       # Number of times the LSQ has become full, causing a stall
system.cpu0.iew.memOrderViolationEvents            62                       # Number of memory order violations
system.cpu0.iew.predictedTakenIncorrect          1823                       # Number of branches that were predicted taken incorrectly
system.cpu0.iew.predictedNotTakenIncorrect         8905                       # Number of branches that were predicted not taken incorrectly
system.cpu0.iew.branchMispredicts               10728                       # Number of branch mispredicts detected at execute
system.cpu0.iew.iewExecutedInsts              5372568                       # Number of executed instructions
system.cpu0.iew.iewExecLoadInsts               974317                       # Number of load instructions executed
system.cpu0.iew.iewExecSquashedInsts            20334                       # Number of squashed instructions skipped in execute
system.cpu0.iew.exec_swp                            0                       # number of swp insts executed
system.cpu0.iew.exec_nop                            0                       # number of nop insts executed
system.cpu0.iew.exec_refs                      989967                       # number of memory reference insts executed
system.cpu0.iew.exec_branches                  843402                       # Number of branches executed
system.cpu0.iew.exec_stores                     15650                       # Number of stores executed
system.cpu0.iew.exec_rate                    1.595718                       # Inst execution rate
system.cpu0.iew.wb_sent                       5256574                       # cumulative count of insts sent to commit
system.cpu0.iew.wb_count                      5251718                       # cumulative count of insts written-back
system.cpu0.iew.wb_producers                  3932601                       # num instructions producing a value
system.cpu0.iew.wb_consumers                  5325599                       # num instructions consuming a value
system.cpu0.iew.wb_rate                      1.559824                       # insts written-back per cycle
system.cpu0.iew.wb_fanout                    0.738434                       # average fanout of values written-back
system.cpu0.commit.commitSquashedInsts         324995                       # The number of squashed insts skipped by commit
system.cpu0.commit.commitNonSpecStalls             70                       # The number of times commit has been forced to stall to communicate backwards
system.cpu0.commit.branchMispredicts             8497                       # The number of times a branch was mispredicted
system.cpu0.commit.committed_per_cycle::samples      3231616                       # Number of insts commited each cycle
system.cpu0.commit.committed_per_cycle::mean     1.567933                       # Number of insts commited each cycle
system.cpu0.commit.committed_per_cycle::stdev     2.672853                       # Number of insts commited each cycle
system.cpu0.commit.committed_per_cycle::underflows            0      0.00%      0.00% # Number of insts commited each cycle
system.cpu0.commit.committed_per_cycle::0      1958077     60.59%     60.59% # Number of insts commited each cycle
system.cpu0.commit.committed_per_cycle::1       420073     13.00%     73.59% # Number of insts commited each cycle
system.cpu0.commit.committed_per_cycle::2         9423      0.29%     73.88% # Number of insts commited each cycle
system.cpu0.commit.committed_per_cycle::3       414296     12.82%     86.70% # Number of insts commited each cycle
system.cpu0.commit.committed_per_cycle::4         8500      0.26%     86.96% # Number of insts commited each cycle
system.cpu0.commit.committed_per_cycle::5         4817      0.15%     87.11% # Number of insts commited each cycle
system.cpu0.commit.committed_per_cycle::6         1514      0.05%     87.16% # Number of insts commited each cycle
system.cpu0.commit.committed_per_cycle::7         1348      0.04%     87.20% # Number of insts commited each cycle
system.cpu0.commit.committed_per_cycle::8       413568     12.80%    100.00% # Number of insts commited each cycle
system.cpu0.commit.committed_per_cycle::overflows            0      0.00%    100.00% # Number of insts commited each cycle
system.cpu0.commit.committed_per_cycle::min_value            0                       # Number of insts commited each cycle
system.cpu0.commit.committed_per_cycle::max_value            8                       # Number of insts commited each cycle
system.cpu0.commit.committed_per_cycle::total      3231616                       # Number of insts commited each cycle
system.cpu0.commit.committedInsts             2543874                       # Number of instructions committed
system.cpu0.commit.committedOps               5066956                       # Number of ops (including micro ops) committed
system.cpu0.commit.swp_count                        0                       # Number of s/w prefetches committed
system.cpu0.commit.refs                        847915                       # Number of memory references committed
system.cpu0.commit.loads                       836593                       # Number of loads committed
system.cpu0.commit.membars                         20                       # Number of memory barriers committed
system.cpu0.commit.branches                    830516                       # Number of branches committed
system.cpu0.commit.fp_insts                      3710                       # Number of committed floating point instructions.
system.cpu0.commit.int_insts                  5063423                       # Number of committed integer instructions.
system.cpu0.commit.function_calls                 707                       # Number of function calls committed.
system.cpu0.commit.op_class_0::No_OpClass         1358      0.03%      0.03% # Class of committed instruction
system.cpu0.commit.op_class_0::IntAlu         4214011     83.17%     83.19% # Class of committed instruction
system.cpu0.commit.op_class_0::IntMult             95      0.00%     83.20% # Class of committed instruction
system.cpu0.commit.op_class_0::IntDiv            1186      0.02%     83.22% # Class of committed instruction
system.cpu0.commit.op_class_0::FloatAdd          2391      0.05%     83.27% # Class of committed instruction
system.cpu0.commit.op_class_0::FloatCmp             0      0.00%     83.27% # Class of committed instruction
system.cpu0.commit.op_class_0::FloatCvt             0      0.00%     83.27% # Class of committed instruction
system.cpu0.commit.op_class_0::FloatMult            0      0.00%     83.27% # Class of committed instruction
system.cpu0.commit.op_class_0::FloatMultAcc            0      0.00%     83.27% # Class of committed instruction
system.cpu0.commit.op_class_0::FloatDiv             0      0.00%     83.27% # Class of committed instruction
system.cpu0.commit.op_class_0::FloatMisc            0      0.00%     83.27% # Class of committed instruction
system.cpu0.commit.op_class_0::FloatSqrt            0      0.00%     83.27% # Class of committed instruction
system.cpu0.commit.op_class_0::SimdAdd              0      0.00%     83.27% # Class of committed instruction
system.cpu0.commit.op_class_0::SimdAddAcc            0      0.00%     83.27% # Class of committed instruction
system.cpu0.commit.op_class_0::SimdAlu              0      0.00%     83.27% # Class of committed instruction
system.cpu0.commit.op_class_0::SimdCmp              0      0.00%     83.27% # Class of committed instruction
system.cpu0.commit.op_class_0::SimdCvt              0      0.00%     83.27% # Class of committed instruction
system.cpu0.commit.op_class_0::SimdMisc             0      0.00%     83.27% # Class of committed instruction
system.cpu0.commit.op_class_0::SimdMult             0      0.00%     83.27% # Class of committed instruction
system.cpu0.commit.op_class_0::SimdMultAcc            0      0.00%     83.27% # Class of committed instruction
system.cpu0.commit.op_class_0::SimdShift            0      0.00%     83.27% # Class of committed instruction
system.cpu0.commit.op_class_0::SimdShiftAcc            0      0.00%     83.27% # Class of committed instruction
system.cpu0.commit.op_class_0::SimdSqrt             0      0.00%     83.27% # Class of committed instruction
system.cpu0.commit.op_class_0::SimdFloatAdd            0      0.00%     83.27% # Class of committed instruction
system.cpu0.commit.op_class_0::SimdFloatAlu            0      0.00%     83.27% # Class of committed instruction
system.cpu0.commit.op_class_0::SimdFloatCmp            0      0.00%     83.27% # Class of committed instruction
system.cpu0.commit.op_class_0::SimdFloatCvt            0      0.00%     83.27% # Class of committed instruction
system.cpu0.commit.op_class_0::SimdFloatDiv            0      0.00%     83.27% # Class of committed instruction
system.cpu0.commit.op_class_0::SimdFloatMisc            0      0.00%     83.27% # Class of committed instruction
system.cpu0.commit.op_class_0::SimdFloatMult            0      0.00%     83.27% # Class of committed instruction
system.cpu0.commit.op_class_0::SimdFloatMultAcc            0      0.00%     83.27% # Class of committed instruction
system.cpu0.commit.op_class_0::SimdFloatSqrt            0      0.00%     83.27% # Class of committed instruction
system.cpu0.commit.op_class_0::MemRead         835733     16.49%     99.76% # Class of committed instruction
system.cpu0.commit.op_class_0::MemWrite         10922      0.22%     99.98% # Class of committed instruction
system.cpu0.commit.op_class_0::FloatMemRead          860      0.02%     99.99% # Class of committed instruction
system.cpu0.commit.op_class_0::FloatMemWrite          400      0.01%    100.00% # Class of committed instruction
system.cpu0.commit.op_class_0::IprAccess            0      0.00%    100.00% # Class of committed instruction
system.cpu0.commit.op_class_0::InstPrefetch            0      0.00%    100.00% # Class of committed instruction
system.cpu0.commit.op_class_0::total          5066956                       # Class of committed instruction
system.cpu0.commit.bw_lim_events               413568                       # number cycles where commit BW limit reached
system.cpu0.rob.rob_reads                     8209986                       # The number of ROB reads
system.cpu0.rob.rob_writes                   10833529                       # The number of ROB writes
system.cpu0.timesIdled                            802                       # Number of times that the entire CPU went into an idle state and unscheduled itself
system.cpu0.idleCycles                          86237                       # Total number of cycles that the CPU has spent unscheduled due to idling
system.cpu0.committedInsts                    2543874                       # Number of Instructions Simulated
system.cpu0.committedOps                      5066956                       # Number of Ops (including micro ops) Simulated
system.cpu0.cpi                              1.323519                       # CPI: Cycles Per Instruction
system.cpu0.cpi_total                        1.323519                       # CPI: Total CPI of All Threads
system.cpu0.ipc                              0.755561                       # IPC: Instructions Per Cycle
system.cpu0.ipc_total                        0.755561                       # IPC: Total IPC of All Threads
system.cpu0.int_regfile_reads                 5637727                       # number of integer regfile reads
system.cpu0.int_regfile_writes                4388588                       # number of integer regfile writes
system.cpu0.fp_regfile_reads                     9413                       # number of floating regfile reads
system.cpu0.fp_regfile_writes                    5504                       # number of floating regfile writes
system.cpu0.cc_regfile_reads                  2633135                       # number of cc regfile reads
system.cpu0.cc_regfile_writes                 1758517                       # number of cc regfile writes
system.cpu0.misc_regfile_reads                3098966                       # number of misc regfile reads
system.cpu1.branchPred.lookups                1814567                       # Number of BP lookups
system.cpu1.branchPred.condPredicted          1814567                       # Number of conditional branches predicted
system.cpu1.branchPred.condIncorrect             8838                       # Number of conditional branches incorrect
system.cpu1.branchPred.BTBLookups             1674174                       # Number of BTB lookups
system.cpu1.branchPred.BTBHits                      0                       # Number of BTB hits
system.cpu1.branchPred.BTBCorrect                   0                       # Number of correct BTB predictions (this stat may not work properly.
system.cpu1.branchPred.BTBHitPct             0.000000                       # BTB Hit Percentage
system.cpu1.branchPred.usedRAS                 117653                       # Number of times the RAS was used to get a target.
system.cpu1.branchPred.RASInCorrect               474                       # Number of incorrect RAS predictions.
system.cpu1.branchPred.indirectLookups        1674174                       # Number of indirect predictor lookups.
system.cpu1.branchPred.indirectHits            943586                       # Number of indirect target hits.
system.cpu1.branchPred.indirectMisses          730588                       # Number of indirect misses.
system.cpu1.branchPredindirectMispredicted         4716                       # Number of mispredicted indirect branches.
system.cpu1.clk_domain.clock                      500                       # Clock period in ticks
system.cpu1.dtb.walker.pwrStateResidencyTicks::UNDEFINED   6145334500                       # Cumulative time (in ticks) in various power states
system.cpu1.apic_clk_domain.clock                8000                       # Clock period in ticks
system.cpu1.interrupts.pwrStateResidencyTicks::UNDEFINED   6145334500                       # Cumulative time (in ticks) in various power states
system.cpu1.itb.walker.pwrStateResidencyTicks::UNDEFINED   6145334500                       # Cumulative time (in ticks) in various power states
system.cpu1.workload.num_syscalls              115260                       # Number of system calls
system.cpu1.pwrStateResidencyTicks::ON     6145334500                       # Cumulative time (in ticks) in various power states
system.cpu1.numCycles                        12290670                       # number of cpu cycles simulated
system.cpu1.numWorkItemsStarted                     0                       # number of work items this cpu started
system.cpu1.numWorkItemsCompleted                   0                       # number of work items this cpu completed
system.cpu1.fetch.icacheStallCycles           1681321                       # Number of cycles fetch is stalled on an Icache miss
system.cpu1.fetch.Insts                       5257949                       # Number of instructions fetch has processed
system.cpu1.fetch.Branches                    1814567                       # Number of branches that fetch encountered
system.cpu1.fetch.predictedBranches           1061239                       # Number of branches that fetch has predicted taken
system.cpu1.fetch.Cycles                     10499441                       # Number of cycles fetch has run and was not squashing or blocked
system.cpu1.fetch.SquashCycles                  17857                       # Number of cycles fetch has spent squashing
system.cpu1.fetch.TlbCycles                         2                       # Number of cycles fetch has spent waiting for tlb
system.cpu1.fetch.MiscStallCycles               11509                       # Number of cycles fetch has spent waiting on interrupts, or bad addresses, or out of MSHRs
system.cpu1.fetch.PendingTrapStallCycles          545                       # Number of stall cycles due to pending traps
system.cpu1.fetch.PendingQuiesceStallCycles           15                       # Number of stall cycles due to pending quiesce instructions
system.cpu1.fetch.IcacheWaitRetryStallCycles         7136                       # Number of stall cycles due to full MSHR
system.cpu1.fetch.CacheLines                  1651591                       # Number of cache lines fetched
system.cpu1.fetch.IcacheSquashes                 2707                       # Number of outstanding Icache misses that were squashed
system.cpu1.fetch.rateDist::samples          12208897                       # Number of instructions fetched each cycle (Total)
system.cpu1.fetch.rateDist::mean             0.855922                       # Number of instructions fetched each cycle (Total)
system.cpu1.fetch.rateDist::stdev            2.212655                       # Number of instructions fetched each cycle (Total)
system.cpu1.fetch.rateDist::underflows              0      0.00%      0.00% # Number of instructions fetched each cycle (Total)
system.cpu1.fetch.rateDist::0                10305561     84.41%     84.41% # Number of instructions fetched each cycle (Total)
system.cpu1.fetch.rateDist::1                  181174      1.48%     85.89% # Number of instructions fetched each cycle (Total)
system.cpu1.fetch.rateDist::2                   61162      0.50%     86.40% # Number of instructions fetched each cycle (Total)
system.cpu1.fetch.rateDist::3                  182090      1.49%     87.89% # Number of instructions fetched each cycle (Total)
system.cpu1.fetch.rateDist::4                  402354      3.30%     91.18% # Number of instructions fetched each cycle (Total)
system.cpu1.fetch.rateDist::5                   66319      0.54%     91.73% # Number of instructions fetched each cycle (Total)
system.cpu1.fetch.rateDist::6                  121871      1.00%     92.72% # Number of instructions fetched each cycle (Total)
system.cpu1.fetch.rateDist::7                  179064      1.47%     94.19% # Number of instructions fetched each cycle (Total)
system.cpu1.fetch.rateDist::8                  709302      5.81%    100.00% # Number of instructions fetched each cycle (Total)
system.cpu1.fetch.rateDist::overflows               0      0.00%    100.00% # Number of instructions fetched each cycle (Total)
system.cpu1.fetch.rateDist::min_value               0                       # Number of instructions fetched each cycle (Total)
system.cpu1.fetch.rateDist::max_value               8                       # Number of instructions fetched each cycle (Total)
system.cpu1.fetch.rateDist::total            12208897                       # Number of instructions fetched each cycle (Total)
system.cpu1.fetch.branchRate                 0.147638                       # Number of branch fetches per cycle
system.cpu1.fetch.rate                       0.427800                       # Number of inst fetches per cycle
system.cpu1.decode.IdleCycles                  396478                       # Number of cycles decode is idle
system.cpu1.decode.BlockedCycles             10352562                       # Number of cycles decode is blocked
system.cpu1.decode.RunCycles                   669902                       # Number of cycles decode is running
system.cpu1.decode.UnblockCycles               781027                       # Number of cycles decode is unblocking
system.cpu1.decode.SquashCycles                  8928                       # Number of cycles decode is squashing
system.cpu1.decode.DecodedInsts              10363254                       # Number of instructions handled by decode
system.cpu1.rename.SquashCycles                  8928                       # Number of cycles rename is squashing
system.cpu1.rename.IdleCycles                  631636                       # Number of cycles rename is idle
system.cpu1.rename.BlockCycles                1389488                       # Number of cycles rename is blocking
system.cpu1.rename.serializeStallCycles       7875436                       # count of cycles rename stalled for serializing inst
system.cpu1.rename.RunCycles                   932808                       # Number of cycles rename is running
system.cpu1.rename.UnblockCycles              1370601                       # Number of cycles rename is unblocking
system.cpu1.rename.RenamedInsts              10320671                       # Number of instructions processed by rename
system.cpu1.rename.ROBFullEvents               713000                       # Number of times rename has blocked due to ROB full
system.cpu1.rename.IQFullEvents                 13269                       # Number of times rename has blocked due to IQ full
system.cpu1.rename.LQFullEvents                281643                       # Number of times rename has blocked due to LQ full
system.cpu1.rename.SQFullEvents                 38104                       # Number of times rename has blocked due to SQ full
system.cpu1.rename.RenamedOperands           11174651                       # Number of destination operands rename has renamed
system.cpu1.rename.RenameLookups             23628271                       # Number of register rename lookups that rename has made
system.cpu1.rename.int_rename_lookups        11764124                       # Number of integer rename lookups
system.cpu1.rename.fp_rename_lookups            18947                       # Number of floating rename lookups
system.cpu1.rename.CommittedMaps             10657115                       # Number of HB maps that are committed
system.cpu1.rename.UndoneMaps                  517536                       # Number of HB maps that are undone due to squashing
system.cpu1.rename.serializingInsts            115303                       # count of serializing insts renamed
system.cpu1.rename.tempSerializingInsts        115304                       # count of temporary serializing insts renamed
system.cpu1.rename.skidInsts                  4792736                       # count of insts added to the skid buffer
system.cpu1.memDep0.insertedLoads             1464035                       # Number of loads inserted to the mem dependence unit.
system.cpu1.memDep0.insertedStores             138703                       # Number of stores inserted to the mem dependence unit.
system.cpu1.memDep0.conflictingLoads             4451                       # Number of conflicting loads.
system.cpu1.memDep0.conflictingStores             589                       # Number of conflicting stores.
system.cpu1.iq.iqInstsAdded                  10128918                       # Number of instructions added to the IQ (excludes non-spec)
system.cpu1.iq.iqNonSpecInstsAdded             115419                       # Number of non-speculative instructions added to the IQ
system.cpu1.iq.iqInstsIssued                 10248599                       # Number of instructions issued
system.cpu1.iq.iqSquashedInstsIssued             6889                       # Number of squashed instructions issued
system.cpu1.iq.iqSquashedInstsExamined         342917                       # Number of squashed instructions iterated over during squash; mainly for profiling
system.cpu1.iq.iqSquashedOperandsExamined       516820                       # Number of squashed operands that are examined and possibly removed from graph
system.cpu1.iq.iqSquashedNonSpecRemoved           129                       # Number of squashed non-spec instructions that were removed
system.cpu1.iq.issued_per_cycle::samples     12208897                       # Number of insts issued each cycle
system.cpu1.iq.issued_per_cycle::mean        0.839437                       # Number of insts issued each cycle
system.cpu1.iq.issued_per_cycle::stdev       1.617529                       # Number of insts issued each cycle
system.cpu1.iq.issued_per_cycle::underflows            0      0.00%      0.00% # Number of insts issued each cycle
system.cpu1.iq.issued_per_cycle::0            8380234     68.64%     68.64% # Number of insts issued each cycle
system.cpu1.iq.issued_per_cycle::1            1417429     11.61%     80.25% # Number of insts issued each cycle
system.cpu1.iq.issued_per_cycle::2             691730      5.67%     85.92% # Number of insts issued each cycle
system.cpu1.iq.issued_per_cycle::3             742867      6.08%     92.00% # Number of insts issued each cycle
[...]
system.ruby.Directory_Controller.O.GETX          3189      0.00%      0.00%
system.ruby.Directory_Controller.O.GETS         12876      0.00%      0.00%
system.ruby.Directory_Controller.NO.GETX          132      0.00%      0.00%
system.ruby.Directory_Controller.NO.GETS          592      0.00%      0.00%
system.ruby.Directory_Controller.NO.Lockdown          286      0.00%      0.00%
system.ruby.Directory_Controller.L.Unlockdown          899      0.00%      0.00%
system.ruby.Directory_Controller.L_NO_W.Memory_Data          613      0.00%      0.00%
system.ruby.Directory_Controller.NO_W.Lockdown          613      0.00%      0.00%
system.ruby.Directory_Controller.NO_W.Memory_Data        15452      0.00%      0.00%
system.ruby.L1Cache_Controller.Load      |      458356     15.29%     15.29% |      980523     32.72%     48.01% |      824310     27.51%     75.52% |      717323     23.94%     99.45% |       16384      0.55%    100.00%
system.ruby.L1Cache_Controller.Load::total      2996896                      
system.ruby.L1Cache_Controller.Ifetch    |      847615     16.89%     16.89% |     1651414     32.91%     49.81% |     1386140     27.63%     77.43% |     1132179     22.57%    100.00% |           0      0.00%    100.00%
system.ruby.L1Cache_Controller.Ifetch::total      5017348                      
system.ruby.L1Cache_Controller.Store     |       11689      3.47%      3.47% |      128953     38.32%     41.79% |       97263     28.90%     70.69% |       82271     24.44%     95.13% |       16384      4.87%    100.00%
system.ruby.L1Cache_Controller.Store::total       336560                      
system.ruby.L1Cache_Controller.L1_Replacement |        2513     21.58%     21.58% |        2594     22.28%     43.86% |        2730     23.44%     67.30% |        3552     30.50%     97.80% |         256      2.20%    100.00%
system.ruby.L1Cache_Controller.L1_Replacement::total        11645                      
system.ruby.L1Cache_Controller.Data_Shared |         419     25.10%     25.10% |         437     26.18%     51.29% |         387     23.19%     74.48% |         426     25.52%    100.00% |           0      0.00%    100.00%
system.ruby.L1Cache_Controller.Data_Shared::total         1669                      
system.ruby.L1Cache_Controller.Data_All_Tokens |        3656     21.51%     21.51% |        3717     21.87%     43.38% |        3905     22.97%     66.35% |        4696     27.63%     93.98% |        1024      6.02%    100.00%
system.ruby.L1Cache_Controller.Data_All_Tokens::total        16998                      
system.ruby.L1Cache_Controller.Transient_Local_GETX |        2983     21.13%     21.13% |        2927     20.73%     41.86% |        2738     19.39%     61.25% |        1942     13.75%     75.00% |        3530     25.00%    100.00%
system.ruby.L1Cache_Controller.Transient_Local_GETX::total        14120                      
system.ruby.L1Cache_Controller.Transient_Local_GETS |       11609     19.17%     19.17% |       11586     19.14%     38.31% |       11637     19.22%     57.53% |       11603     19.16%     76.69% |       14113     23.31%    100.00%
system.ruby.L1Cache_Controller.Transient_Local_GETS::total        60548                      
system.ruby.L1Cache_Controller.Persistent_GETX |         138     20.29%     20.29% |         127     18.68%     38.97% |         140     20.59%     59.56% |         105     15.44%     75.00% |         170     25.00%    100.00%
system.ruby.L1Cache_Controller.Persistent_GETX::total          680                      
system.ruby.L1Cache_Controller.Persistent_GETS |         547     18.76%     18.76% |         554     19.00%     37.76% |         543     18.62%     56.38% |         558     19.14%     75.51% |         714     24.49%    100.00%
system.ruby.L1Cache_Controller.Persistent_GETS::total         2916                      
system.ruby.L1Cache_Controller.Own_Lock_or_Unlock |        1113     20.63%     20.63% |        1117     20.71%     41.34% |        1115     20.67%     62.01% |        1135     21.04%     83.06% |         914     16.94%    100.00%
system.ruby.L1Cache_Controller.Own_Lock_or_Unlock::total         5394                      
system.ruby.L1Cache_Controller.Request_Timeout |        1347     28.09%     28.09% |        1173     24.46%     52.54% |        1365     28.46%     81.01% |         896     18.68%     99.69% |          15      0.31%    100.00%
system.ruby.L1Cache_Controller.Request_Timeout::total         4796                      
system.ruby.L1Cache_Controller.Use_TimeoutNoStarvers |        3656     21.51%     21.51% |        3716     21.86%     43.37% |        3905     22.97%     66.35% |        4696     27.63%     93.98% |        1024      6.02%    100.00%
system.ruby.L1Cache_Controller.Use_TimeoutNoStarvers::total        16997                      
system.ruby.L1Cache_Controller.NP.Load   |        2268     22.44%     22.44% |        2285     22.61%     45.04% |        2253     22.29%     67.33% |        2278     22.54%     89.87% |        1024     10.13%    100.00%
system.ruby.L1Cache_Controller.NP.Load::total        10108                      
system.ruby.L1Cache_Controller.NP.Ifetch |        1259     25.04%     25.04% |        1265     25.16%     50.21% |        1247     24.81%     75.01% |        1256     24.99%    100.00% |           0      0.00%    100.00%
system.ruby.L1Cache_Controller.NP.Ifetch::total         5027                      
system.ruby.L1Cache_Controller.NP.Store  |         515     15.16%     15.16% |         573     16.86%     32.02% |         762     22.42%     54.44% |        1548     45.56%    100.00% |           0      0.00%    100.00%
system.ruby.L1Cache_Controller.NP.Store::total         3398                      
system.ruby.L1Cache_Controller.NP.Transient_Local_GETX |        2983     21.13%     21.13% |        2927     20.73%     41.86% |        2738     19.39%     61.25% |        1942     13.75%     75.00% |        3530     25.00%    100.00%
system.ruby.L1Cache_Controller.NP.Transient_Local_GETX::total        14120                      
system.ruby.L1Cache_Controller.NP.Transient_Local_GETS |       11602     19.35%     19.35% |       11519     19.21%     38.56% |       11381     18.98%     57.55% |       11347     18.93%     76.47% |       14107     23.53%    100.00%
system.ruby.L1Cache_Controller.NP.Transient_Local_GETS::total        59956                      
system.ruby.L1Cache_Controller.NP.Own_Lock_or_Unlock |         685     19.05%     19.05% |         681     18.94%     37.99% |         683     18.99%     56.98% |         663     18.44%     75.42% |         884     24.58%    100.00%
system.ruby.L1Cache_Controller.NP.Own_Lock_or_Unlock::total         3596                      
system.ruby.L1Cache_Controller.I.Load    |           1     50.00%     50.00% |           1     50.00%    100.00% |           0      0.00%    100.00% |           0      0.00%    100.00% |           0      0.00%    100.00%
system.ruby.L1Cache_Controller.I.Load::total            2                      
system.ruby.L1Cache_Controller.I.L1_Replacement |           0      0.00%      0.00% |           3     11.11%     11.11% |           2      7.41%     18.52% |          22     81.48%    100.00% |           0      0.00%    100.00%
system.ruby.L1Cache_Controller.I.L1_Replacement::total           27                      
system.ruby.L1Cache_Controller.S.Load    |        4531      0.52%      0.52% |      235205     26.96%     27.48% |      160010     18.34%     45.82% |      472751     54.18%    100.00% |           0      0.00%    100.00%
system.ruby.L1Cache_Controller.S.Load::total       872497                      
system.ruby.L1Cache_Controller.S.Ifetch  |      401269     19.83%     19.83% |      577168     28.52%     48.35% |      388037     19.17%     67.52% |      657259     32.48%    100.00% |           0      0.00%    100.00%
system.ruby.L1Cache_Controller.S.Ifetch::total      2023733                      
system.ruby.L1Cache_Controller.S.Store   |          32     24.24%     24.24% |          30     22.73%     46.97% |          30     22.73%     69.70% |          40     30.30%    100.00% |           0      0.00%    100.00%
system.ruby.L1Cache_Controller.S.Store::total          132                      
system.ruby.L1Cache_Controller.S.L1_Replacement |         184     19.72%     19.72% |         236     25.29%     45.02% |         209     22.40%     67.42% |         304     32.58%    100.00% |           0      0.00%    100.00%
system.ruby.L1Cache_Controller.S.L1_Replacement::total          933                      
system.ruby.L1Cache_Controller.M.Load    |       15116     19.24%     19.24% |       16421     20.90%     40.14% |       17077     21.73%     61.87% |       15852     20.18%     82.05% |       14105     17.95%    100.00%
system.ruby.L1Cache_Controller.M.Load::total        78571                      
system.ruby.L1Cache_Controller.M.Ifetch  |      444661     14.89%     14.89% |     1072548     35.91%     50.80% |      996438     33.36%     84.16% |      473238     15.84%    100.00% |           0      0.00%    100.00%
system.ruby.L1Cache_Controller.M.Ifetch::total      2986885                      
system.ruby.L1Cache_Controller.M.Store   |          49      3.99%      3.99% |          51      4.16%      8.15% |          51      4.16%     12.31% |          52      4.24%     16.54% |        1024     83.46%    100.00%
system.ruby.L1Cache_Controller.M.Store::total         1227                      
system.ruby.L1Cache_Controller.M.L1_Replacement |        1826     22.13%     22.13% |        1846     22.37%     44.49% |        2013     24.39%     68.88% |        2568     31.12%    100.00% |           0      0.00%    100.00%
system.ruby.L1Cache_Controller.M.L1_Replacement::total         8253                      
system.ruby.L1Cache_Controller.M.Own_Lock_or_Unlock |         182     25.00%     25.00% |         174     23.90%     48.90% |         186     25.55%     74.45% |         171     23.49%     97.94% |          15      2.06%    100.00%
system.ruby.L1Cache_Controller.M.Own_Lock_or_Unlock::total          728                      
system.ruby.L1Cache_Controller.MM.Load   |      425038     21.36%     21.36% |      715188     35.95%     57.31% |      633888     31.86%     89.17% |      215412     10.83%    100.00% |           0      0.00%    100.00%
system.ruby.L1Cache_Controller.MM.Load::total      1989526                      
system.ruby.L1Cache_Controller.MM.Store  |        9030      2.91%      2.91% |      125677     40.50%     43.41% |       91874     29.61%     73.02% |       68351     22.03%     95.05% |       15360      4.95%    100.00%
system.ruby.L1Cache_Controller.MM.Store::total       310292                      
system.ruby.L1Cache_Controller.MM.L1_Replacement |         503     20.69%     20.69% |         509     20.94%     41.63% |         505     20.77%     62.40% |         658     27.07%     89.47% |         256     10.53%    100.00%
system.ruby.L1Cache_Controller.MM.L1_Replacement::total         2431                      
system.ruby.L1Cache_Controller.MM.Transient_Local_GETS |           7      1.18%      1.18% |          67     11.32%     12.50% |         256     43.24%     55.74% |         256     43.24%     98.99% |           6      1.01%    100.00%
system.ruby.L1Cache_Controller.MM.Transient_Local_GETS::total          592                      
system.ruby.L1Cache_Controller.MM.Own_Lock_or_Unlock |          32     18.71%     18.71% |          44     25.73%     44.44% |          30     17.54%     61.99% |          65     38.01%    100.00% |           0      0.00%    100.00%
system.ruby.L1Cache_Controller.MM.Own_Lock_or_Unlock::total          171                      
system.ruby.L1Cache_Controller.M_W.Load  |       11367     24.68%     24.68% |       11393     24.74%     49.42% |       11045     23.98%     73.41% |       10992     23.87%     97.27% |        1255      2.73%    100.00%
system.ruby.L1Cache_Controller.M_W.Load::total        46052                      
system.ruby.L1Cache_Controller.M_W.Ifetch |         426     25.01%     25.01% |         433     25.43%     50.44% |         418     24.54%     74.99% |         426     25.01%    100.00% |           0      0.00%    100.00%
system.ruby.L1Cache_Controller.M_W.Ifetch::total         1703                      
system.ruby.L1Cache_Controller.M_W.Store |          10     24.39%     24.39% |          12     29.27%     53.66% |           9     21.95%     75.61% |          10     24.39%    100.00% |           0      0.00%    100.00%
system.ruby.L1Cache_Controller.M_W.Store::total           41                      
system.ruby.L1Cache_Controller.M_W.L1_Replacement |           0      0.00%      0.00% |           0      0.00%      0.00% |           1    100.00%    100.00% |           0      0.00%    100.00% |           0      0.00%    100.00%
system.ruby.L1Cache_Controller.M_W.L1_Replacement::total            1                      
system.ruby.L1Cache_Controller.M_W.Own_Lock_or_Unlock |          27     28.72%     28.72% |          25     26.60%     55.32% |          16     17.02%     72.34% |          26     27.66%    100.00% |           0      0.00%    100.00%
system.ruby.L1Cache_Controller.M_W.Own_Lock_or_Unlock::total           94                      
system.ruby.L1Cache_Controller.M_W.Use_TimeoutNoStarvers |        3099     23.08%     23.08% |        3101     23.10%     46.18% |        3104     23.12%     69.30% |        3098     23.07%     92.37% |        1024      7.63%    100.00%
system.ruby.L1Cache_Controller.M_W.Use_TimeoutNoStarvers::total        13426                      
system.ruby.L1Cache_Controller.MM_W.Load |          35     25.00%     25.00% |          30     21.43%     46.43% |          37     26.43%     72.86% |          38     27.14%    100.00% |           0      0.00%    100.00%
system.ruby.L1Cache_Controller.MM_W.Load::total          140                      
system.ruby.L1Cache_Controller.MM_W.Store |        2053      9.56%      9.56% |        2610     12.16%     21.72% |        4537     21.13%     42.85% |       12270     57.15%    100.00% |           0      0.00%    100.00%
system.ruby.L1Cache_Controller.MM_W.Store::total        21470                      
system.ruby.L1Cache_Controller.MM_W.Own_Lock_or_Unlock |          10     33.33%     33.33% |           7     23.33%     56.67% |           5     16.67%     73.33% |           8     26.67%    100.00% |           0      0.00%    100.00%
system.ruby.L1Cache_Controller.MM_W.Own_Lock_or_Unlock::total           30                      
system.ruby.L1Cache_Controller.MM_W.Use_TimeoutNoStarvers |         557     15.60%     15.60% |         615     17.22%     32.82% |         801     22.43%     55.25% |        1598     44.75%    100.00% |           0      0.00%    100.00%
system.ruby.L1Cache_Controller.MM_W.Use_TimeoutNoStarvers::total         3571                      
system.ruby.L1Cache_Controller.IM.Data_All_Tokens |         515     15.16%     15.16% |         573     16.86%     32.02% |         762     22.42%     54.44% |        1548     45.56%    100.00% |           0      0.00%    100.00%
system.ruby.L1Cache_Controller.IM.Data_All_Tokens::total         3398                      
system.ruby.L1Cache_Controller.IM.Own_Lock_or_Unlock |          22     15.71%     15.71% |          36     25.71%     41.43% |          25     17.86%     59.29% |          57     40.71%    100.00% |           0      0.00%    100.00%
system.ruby.L1Cache_Controller.IM.Own_Lock_or_Unlock::total          140                      
system.ruby.L1Cache_Controller.IM.Request_Timeout |         103     19.69%     19.69% |         159     30.40%     50.10% |         141     26.96%     77.06% |         120     22.94%    100.00% |           0      0.00%    100.00%
system.ruby.L1Cache_Controller.IM.Request_Timeout::total          523                      
system.ruby.L1Cache_Controller.SM.Data_All_Tokens |          32     24.24%     24.24% |          30     22.73%     46.97% |          30     22.73%     69.70% |          40     30.30%    100.00% |           0      0.00%    100.00%
system.ruby.L1Cache_Controller.SM.Data_All_Tokens::total          132                      
system.ruby.L1Cache_Controller.IS.Data_Shared |         419     25.10%     25.10% |         437     26.18%     51.29% |         387     23.19%     74.48% |         426     25.52%    100.00% |           0      0.00%    100.00%
system.ruby.L1Cache_Controller.IS.Data_Shared::total         1669                      
system.ruby.L1Cache_Controller.IS.Data_All_Tokens |        3109     23.08%     23.08% |        3114     23.12%     46.21% |        3113     23.11%     69.32% |        3108     23.08%     92.40% |        1024      7.60%    100.00%
system.ruby.L1Cache_Controller.IS.Data_All_Tokens::total        13468                      
system.ruby.L1Cache_Controller.IS.Own_Lock_or_Unlock |         155     24.41%     24.41% |         150     23.62%     48.03% |         170     26.77%     74.80% |         145     22.83%     97.64% |          15      2.36%    100.00%
system.ruby.L1Cache_Controller.IS.Own_Lock_or_Unlock::total          635                      
system.ruby.L1Cache_Controller.IS.Request_Timeout |        1244     29.11%     29.11% |        1014     23.73%     52.84% |        1224     28.64%     81.49% |         776     18.16%     99.65% |          15      0.35%    100.00%
system.ruby.L1Cache_Controller.IS.Request_Timeout::total         4273                      
system.ruby.L1Cache_Controller.I_L.Persistent_GETX |         138     20.29%     20.29% |         127     18.68%     38.97% |         140     20.59%     59.56% |         105     15.44%     75.00% |         170     25.00%    100.00%
system.ruby.L1Cache_Controller.I_L.Persistent_GETX::total          680                      
system.ruby.L1Cache_Controller.I_L.Persistent_GETS |         547     18.76%     18.76% |         554     19.00%     37.76% |         543     18.62%     56.38% |         558     19.14%     75.51% |         714     24.49%    100.00%
system.ruby.L1Cache_Controller.I_L.Persistent_GETS::total         2916                      
system.ruby.L2Cache_Controller.L1_GETS          15137      0.00%      0.00%
system.ruby.L2Cache_Controller.L1_GETX           3530      0.00%      0.00%
system.ruby.L2Cache_Controller.L1_INV             592      0.00%      0.00%
system.ruby.L2Cache_Controller.Writeback_Shared_Data            3      0.00%      0.00%
system.ruby.L2Cache_Controller.Writeback_All_Tokens        11614      0.00%      0.00%
system.ruby.L2Cache_Controller.Persistent_GETX          170      0.00%      0.00%
system.ruby.L2Cache_Controller.Persistent_GETS          729      0.00%      0.00%
system.ruby.L2Cache_Controller.Own_Lock_or_Unlock          899      0.00%      0.00%
system.ruby.L2Cache_Controller.NP.L1_GETS        13468      0.00%      0.00%
system.ruby.L2Cache_Controller.NP.L1_GETX         3189      0.00%      0.00%
system.ruby.L2Cache_Controller.NP.L1_INV          592      0.00%      0.00%
system.ruby.L2Cache_Controller.NP.Writeback_All_Tokens        10530      0.00%      0.00%
system.ruby.L2Cache_Controller.NP.Own_Lock_or_Unlock          899      0.00%      0.00%
system.ruby.L2Cache_Controller.I.Writeback_All_Tokens          154      0.00%      0.00%
system.ruby.L2Cache_Controller.O.L1_GETS            3      0.00%      0.00%
system.ruby.L2Cache_Controller.O.L1_GETX          132      0.00%      0.00%
system.ruby.L2Cache_Controller.O.Writeback_Shared_Data            3      0.00%      0.00%
system.ruby.L2Cache_Controller.O.Writeback_All_Tokens          930      0.00%      0.00%
system.ruby.L2Cache_Controller.M.L1_GETS         1666      0.00%      0.00%
system.ruby.L2Cache_Controller.M.L1_GETX          209      0.00%      0.00%
system.ruby.L2Cache_Controller.I_L.Persistent_GETX          170      0.00%      0.00%
system.ruby.L2Cache_Controller.I_L.Persistent_GETS          729      0.00%      0.00%

---------- End Simulation Statistics   ----------
