
---------- Begin Simulation Statistics ----------
sim_seconds                                  0.006147                       # Number of seconds simulated
sim_ticks                                  6146848000                       # Number of ticks simulated
final_tick                                 6146848000                       # Number of ticks from beginning of simulation (restored from checkpoints and never reset)
sim_freq                                 1000000000000                       # Frequency of simulated ticks
host_inst_rate                                  42521                       # Simulator instruction rate (inst/s)
host_op_rate                                    84103                       # Simulator op (including micro ops) rate (op/s)
host_tick_rate                               17041923                       # Simulator tick rate (ticks/s)
host_mem_usage                                 850240                       # Number of bytes of host memory used
host_seconds                                   360.69                       # Real time elapsed on the host
sim_insts                                    15336740                       # Number of instructions simulated
sim_ops                                      30335167                       # Number of ops (including micro ops) simulated
system.voltage_domain.voltage                       1                       # Voltage in Volts
system.clk_domain.clock                          1000                       # Clock period in ticks
system.mem_ctrls.pwrStateResidencyTicks::UNDEFINED   6146848000                       # Cumulative time (in ticks) in various power states
system.mem_ctrls.bytes_read::ruby.dir_cntrl0      1028928                       # Number of bytes read from this memory
system.mem_ctrls.bytes_read::total            1028928                       # Number of bytes read from this memory
system.mem_ctrls.num_reads::ruby.dir_cntrl0        16077                       # Number of read requests responded to by this memory
system.mem_ctrls.num_reads::total               16077                       # Number of read requests responded to by this memory
system.mem_ctrls.bw_read::ruby.dir_cntrl0    167391157                       # Total read bandwidth from this memory (bytes/s)
system.mem_ctrls.bw_read::total             167391157                       # Total read bandwidth from this memory (bytes/s)
system.mem_ctrls.bw_total::ruby.dir_cntrl0    167391157                       # Total bandwidth to/from this memory (bytes/s)
system.mem_ctrls.bw_total::total            167391157                       # Total bandwidth to/from this memory (bytes/s)
system.mem_ctrls.readReqs                       16077                       # Number of read requests accepted
system.mem_ctrls.avgNetLat                       0.00                       # Average network latency to DRAM controller
system.mem_ctrls.writeReqs                          0                       # Number of write requests accepted
system.mem_ctrls.readBursts                     16077                       # Number of DRAM read bursts, including those serviced by the write queue
system.mem_ctrls.writeBursts                        0                       # Number of DRAM write bursts, including those merged in the write queue
system.mem_ctrls.bytesReadDRAM                1028928                       # Total number of bytes read from DRAM
system.mem_ctrls.bytesReadWrQ                       0                       # Total number of bytes read from write queue
system.mem_ctrls.bytesWritten                       0                       # Total number of bytes written to DRAM
system.mem_ctrls.bytesReadSys                 1028928                       # Total read bytes from the system interface side
system.mem_ctrls.bytesWrittenSys                    0                       # Total written bytes from the system interface side
system.mem_ctrls.servicedByWrQ                      0                       # Number of DRAM read bursts serviced by the write queue
system.mem_ctrls.mergedWrBursts                     0                       # Number of DRAM write bursts merged with an existing one
system.mem_ctrls.neitherReadNorWriteReqs            0                       # Number of requests that are neither read nor write
system.mem_ctrls.perBankRdBursts::0              1198                       # Per bank write bursts
system.mem_ctrls.perBankRdBursts::1              1126                       # Per bank write bursts
system.mem_ctrls.perBankRdBursts::2               962                       # Per bank write bursts
system.mem_ctrls.perBankRdBursts::3               808                       # Per bank write bursts
system.mem_ctrls.perBankRdBursts::4               768                       # Per bank write bursts
system.mem_ctrls.perBankRdBursts::5              1041                       # Per bank write bursts
system.mem_ctrls.perBankRdBursts::6              1167                       # Per bank write bursts
system.mem_ctrls.perBankRdBursts::7              1139                       # Per bank write bursts
system.mem_ctrls.perBankRdBursts::8              1074                       # Per bank write bursts
system.mem_ctrls.perBankRdBursts::9               981                       # Per bank write bursts
system.mem_ctrls.perBankRdBursts::10              890                       # Per bank write bursts
system.mem_ctrls.perBankRdBursts::11              852                       # Per bank write bursts
system.mem_ctrls.perBankRdBursts::12              936                       # Per bank write bursts
system.mem_ctrls.perBankRdBursts::13             1026                       # Per bank write bursts
system.mem_ctrls.perBankRdBursts::14             1029                       # Per bank write bursts
system.mem_ctrls.perBankRdBursts::15             1080                       # Per bank write bursts
system.mem_ctrls.perBankWrBursts::0                 0                       # Per bank write bursts
system.mem_ctrls.perBankWrBursts::1                 0                       # Per bank write bursts
system.mem_ctrls.perBankWrBursts::2                 0                       # Per bank write bursts
system.mem_ctrls.perBankWrBursts::3                 0                       # Per bank write bursts
system.mem_ctrls.perBankWrBursts::4                 0                       # Per bank write bursts
system.mem_ctrls.perBankWrBursts::5                 0                       # Per bank write bursts
system.mem_ctrls.perBankWrBursts::6                 0                       # Per bank write bursts
system.mem_ctrls.perBankWrBursts::7                 0                       # Per bank write bursts
system.mem_ctrls.perBankWrBursts::8                 0                       # Per bank write bursts
system.mem_ctrls.perBankWrBursts::9                 0                       # Per bank write bursts
system.mem_ctrls.perBankWrBursts::10                0                       # Per bank write bursts
system.mem_ctrls.perBankWrBursts::11                0                       # Per bank write bursts
system.mem_ctrls.perBankWrBursts::12                0                       # Per bank write bursts
system.mem_ctrls.perBankWrBursts::13                0                       # Per bank write bursts
system.mem_ctrls.perBankWrBursts::14                0                       # Per bank write bursts
system.mem_ctrls.perBankWrBursts::15                0                       # Per bank write bursts
system.mem_ctrls.numRdRetry                         0                       # Number of times read queue was full causing retry
system.mem_ctrls.numWrRetry                         0                       # Number of times write queue was full causing retry
system.mem_ctrls.totGap                    6146779500                       # Total gap between requests
system.mem_ctrls.readPktSize::0                     0                       # Read request sizes (log2)
system.mem_ctrls.readPktSize::1                     0                       # Read request sizes (log2)
system.mem_ctrls.readPktSize::2                     0                       # Read request sizes (log2)
system.mem_ctrls.readPktSize::3                     0                       # Read request sizes (log2)
system.mem_ctrls.readPktSize::4                     0                       # Read request sizes (log2)
system.mem_ctrls.readPktSize::5                     0                       # Read request sizes (log2)
system.mem_ctrls.readPktSize::6                 16077                       # Read request sizes (log2)
system.mem_ctrls.writePktSize::0                    0                       # Write request sizes (log2)
system.mem_ctrls.writePktSize::1                    0                       # Write request sizes (log2)
system.mem_ctrls.writePktSize::2                    0                       # Write request sizes (log2)
system.mem_ctrls.writePktSize::3                    0                       # Write request sizes (log2)
system.mem_ctrls.writePktSize::4                    0                       # Write request sizes (log2)
system.mem_ctrls.writePktSize::5                    0                       # Write request sizes (log2)
system.mem_ctrls.writePktSize::6                    0                       # Write request sizes (log2)
system.mem_ctrls.rdQLenPdf::0                    3599                       # What read queue length does an incoming req see
system.mem_ctrls.rdQLenPdf::1                    2851                       # What read queue length does an incoming req see
system.mem_ctrls.rdQLenPdf::2                    2502                       # What read queue length does an incoming req see
system.mem_ctrls.rdQLenPdf::3                    1899                       # What read queue length does an incoming req see
system.mem_ctrls.rdQLenPdf::4                    1414                       # What read queue length does an incoming req see
system.mem_ctrls.rdQLenPdf::5                     977                       # What read queue length does an incoming req see
system.mem_ctrls.rdQLenPdf::6                     873                       # What read queue length does an incoming req see
system.mem_ctrls.rdQLenPdf::7                     755                       # What read queue length does an incoming req see
system.mem_ctrls.rdQLenPdf::8                     521                       # What read queue length does an incoming req see
system.mem_ctrls.rdQLenPdf::9                     287                       # What read queue length does an incoming req see
system.mem_ctrls.rdQLenPdf::10                    201                       # What read queue length does an incoming req see
system.mem_ctrls.rdQLenPdf::11                    115                       # What read queue length does an incoming req see
system.mem_ctrls.rdQLenPdf::12                     49                       # What read queue length does an incoming req see
system.mem_ctrls.rdQLenPdf::13                     18                       # What read queue length does an incoming req see
system.mem_ctrls.rdQLenPdf::14                      5                       # What read queue length does an incoming req see
system.mem_ctrls.rdQLenPdf::15                      2                       # What read queue length does an incoming req see
system.mem_ctrls.rdQLenPdf::16                      3                       # What read queue length does an incoming req see
system.mem_ctrls.rdQLenPdf::17                      3                       # What read queue length does an incoming req see
system.mem_ctrls.rdQLenPdf::18                      2                       # What read queue length does an incoming req see
system.mem_ctrls.rdQLenPdf::19                      1                       # What read queue length does an incoming req see
system.mem_ctrls.rdQLenPdf::20                      0                       # What read queue length does an incoming req see
system.mem_ctrls.rdQLenPdf::21                      0                       # What read queue length does an incoming req see
system.mem_ctrls.rdQLenPdf::22                      0                       # What read queue length does an incoming req see
system.mem_ctrls.rdQLenPdf::23                      0                       # What read queue length does an incoming req see
system.mem_ctrls.rdQLenPdf::24                      0                       # What read queue length does an incoming req see
system.mem_ctrls.rdQLenPdf::25                      0                       # What read queue length does an incoming req see
system.mem_ctrls.rdQLenPdf::26                      0                       # What read queue length does an incoming req see
system.mem_ctrls.rdQLenPdf::27                      0                       # What read queue length does an incoming req see
system.mem_ctrls.rdQLenPdf::28                      0                       # What read queue length does an incoming req see
system.mem_ctrls.rdQLenPdf::29                      0                       # What read queue length does an incoming req see
system.mem_ctrls.rdQLenPdf::30                      0                       # What read queue length does an incoming req see
system.mem_ctrls.rdQLenPdf::31                      0                       # What read queue length does an incoming req see
system.mem_ctrls.wrQLenPdf::0                       0                       # What write queue length does an incoming req see
system.mem_ctrls.wrQLenPdf::1                       0                       # What write queue length does an incoming req see
system.mem_ctrls.wrQLenPdf::2                       0                       # What write queue length does an incoming req see
system.mem_ctrls.wrQLenPdf::3                       0                       # What write queue length does an incoming req see
system.mem_ctrls.wrQLenPdf::4                       0                       # What write queue length does an incoming req see
system.mem_ctrls.wrQLenPdf::5                       0                       # What write queue length does an incoming req see
system.mem_ctrls.wrQLenPdf::6                       0                       # What write queue length does an incoming req see
system.mem_ctrls.wrQLenPdf::7                       0                       # What write queue length does an incoming req see
system.mem_ctrls.wrQLenPdf::8                       0                       # What write queue length does an incoming req see
system.mem_ctrls.wrQLenPdf::9                       0                       # What write queue length does an incoming req see
system.mem_ctrls.wrQLenPdf::10                      0                       # What write queue length does an incoming req see
system.mem_ctrls.wrQLenPdf::11                      0                       # What write queue length does an incoming req see
system.mem_ctrls.wrQLenPdf::12                      0                       # What write queue length does an incoming req see
system.mem_ctrls.wrQLenPdf::13                      0                       # What write queue length does an incoming req see
system.mem_ctrls.wrQLenPdf::14                      0                       # What write queue length does an incoming req see
system.mem_ctrls.wrQLenPdf::15                      0                       # What write queue length does an incoming req see
system.mem_ctrls.wrQLenPdf::16                      0                       # What write queue length does an incoming req see
system.mem_ctrls.wrQLenPdf::17                      0                       # What write queue length does an incoming req see
system.mem_ctrls.wrQLenPdf::18                      0                       # What write queue length does an incoming req see
system.mem_ctrls.wrQLenPdf::19                      0                       # What write queue length does an incoming req see
system.mem_ctrls.wrQLenPdf::20                      0                       # What write queue length does an incoming req see
system.mem_ctrls.wrQLenPdf::21                      0                       # What write queue length does an incoming req see
system.mem_ctrls.wrQLenPdf::22                      0                       # What write queue length does an incoming req see
system.mem_ctrls.wrQLenPdf::23                      0                       # What write queue length does an incoming req see
system.mem_ctrls.wrQLenPdf::24                      0                       # What write queue length does an incoming req see
system.mem_ctrls.wrQLenPdf::25                      0                       # What write queue length does an incoming req see
system.mem_ctrls.wrQLenPdf::26                      0                       # What write queue length does an incoming req see
system.mem_ctrls.wrQLenPdf::27                      0                       # What write queue length does an incoming req see
system.mem_ctrls.wrQLenPdf::28                      0                       # What write queue length does an incoming req see
system.mem_ctrls.wrQLenPdf::29                      0                       # What write queue length does an incoming req see
system.mem_ctrls.wrQLenPdf::30                      0                       # What write queue length does an incoming req see
system.mem_ctrls.wrQLenPdf::31                      0                       # What write queue length does an incoming req see
system.mem_ctrls.wrQLenPdf::32                      0                       # What write queue length does an incoming req see
system.mem_ctrls.wrQLenPdf::33                      0                       # What write queue length does an incoming req see
system.mem_ctrls.wrQLenPdf::34                      0                       # What write queue length does an incoming req see
system.mem_ctrls.wrQLenPdf::35                      0                       # What write queue length does an incoming req see
system.mem_ctrls.wrQLenPdf::36                      0                       # What write queue length does an incoming req see
system.mem_ctrls.wrQLenPdf::37                      0                       # What write queue length does an incoming req see
system.mem_ctrls.wrQLenPdf::38                      0                       # What write queue length does an incoming req see
system.mem_ctrls.wrQLenPdf::39                      0                       # What write queue length does an incoming req see
system.mem_ctrls.wrQLenPdf::40                      0                       # What write queue length does an incoming req see
system.mem_ctrls.wrQLenPdf::41                      0                       # What write queue length does an incoming req see
system.mem_ctrls.wrQLenPdf::42                      0                       # What write queue length does an incoming req see
system.mem_ctrls.wrQLenPdf::43                      0                       # What write queue length does an incoming req see
system.mem_ctrls.wrQLenPdf::44                      0                       # What write queue length does an incoming req see
system.mem_ctrls.wrQLenPdf::45                      0                       # What write queue length does an incoming req see
system.mem_ctrls.wrQLenPdf::46                      0                       # What write queue length does an incoming req see
system.mem_ctrls.wrQLenPdf::47                      0                       # What write queue length does an incoming req see
system.mem_ctrls.wrQLenPdf::48                      0                       # What write queue length does an incoming req see
system.mem_ctrls.wrQLenPdf::49                      0                       # What write queue length does an incoming req see
system.mem_ctrls.wrQLenPdf::50                      0                       # What write queue length does an incoming req see
system.mem_ctrls.wrQLenPdf::51                      0                       # What write queue length does an incoming req see
system.mem_ctrls.wrQLenPdf::52                      0                       # What write queue length does an incoming req see
system.mem_ctrls.wrQLenPdf::53                      0                       # What write queue length does an incoming req see
system.mem_ctrls.wrQLenPdf::54                      0                       # What write queue length does an incoming req see
system.mem_ctrls.wrQLenPdf::55                      0                       # What write queue length does an incoming req see
system.mem_ctrls.wrQLenPdf::56                      0                       # What write queue length does an incoming req see
system.mem_ctrls.wrQLenPdf::57                      0                       # What write queue length does an incoming req see
system.mem_ctrls.wrQLenPdf::58                      0                       # What write queue length does an incoming req see
system.mem_ctrls.wrQLenPdf::59                      0                       # What write queue length does an incoming req see
system.mem_ctrls.wrQLenPdf::60                      0                       # What write queue length does an incoming req see
system.mem_ctrls.wrQLenPdf::61                      0                       # What write queue length does an incoming req see
system.mem_ctrls.wrQLenPdf::62                      0                       # What write queue length does an incoming req see
system.mem_ctrls.wrQLenPdf::63                      0                       # What write queue length does an incoming req see
system.mem_ctrls.bytesPerActivate::samples         4620                       # Bytes accessed per row activation
system.mem_ctrls.bytesPerActivate::mean    222.365368                       # Bytes accessed per row activation
system.mem_ctrls.bytesPerActivate::gmean   130.785763                       # Bytes accessed per row activation
system.mem_ctrls.bytesPerActivate::stdev   283.207952                       # Bytes accessed per row activation
system.mem_ctrls.bytesPerActivate::0-127         2432     52.64%     52.64% # Bytes accessed per row activation
system.mem_ctrls.bytesPerActivate::128-255         1111     24.05%     76.69% # Bytes accessed per row activation
system.mem_ctrls.bytesPerActivate::256-383          296      6.41%     83.10% # Bytes accessed per row activation
system.mem_ctrls.bytesPerActivate::384-511          137      2.97%     86.06% # Bytes accessed per row activation
system.mem_ctrls.bytesPerActivate::512-639          111      2.40%     88.46% # Bytes accessed per row activation
system.mem_ctrls.bytesPerActivate::640-767           84      1.82%     90.28% # Bytes accessed per row activation
system.mem_ctrls.bytesPerActivate::768-895           52      1.13%     91.41% # Bytes accessed per row activation
system.mem_ctrls.bytesPerActivate::896-1023           26      0.56%     91.97% # Bytes accessed per row activation
system.mem_ctrls.bytesPerActivate::1024-1151          371      8.03%    100.00% # Bytes accessed per row activation
system.mem_ctrls.bytesPerActivate::total         4620                       # Bytes accessed per row activation
system.mem_ctrls.totQLat                    444257106                       # Total ticks spent queuing
system.mem_ctrls.totMemAccLat               745700856                       # Total ticks spent from burst creation until serviced by the DRAM
system.mem_ctrls.totBusLat                   80385000                       # Total ticks spent in databus transfers
system.mem_ctrls.avgQLat                     27633.08                       # Average queueing delay per DRAM burst
system.mem_ctrls.avgBusLat                    5000.00                       # Average bus latency per DRAM burst
system.mem_ctrls.avgMemAccLat                46383.08                       # Average memory access latency per DRAM burst
system.mem_ctrls.avgRdBW                       167.39                       # Average DRAM read bandwidth in MiByte/s
system.mem_ctrls.avgWrBW                         0.00                       # Average achieved write bandwidth in MiByte/s
system.mem_ctrls.avgRdBWSys                    167.39                       # Average system read bandwidth in MiByte/s
system.mem_ctrls.avgWrBWSys                      0.00                       # Average system write bandwidth in MiByte/s
system.mem_ctrls.peakBW                      12800.00                       # Theoretical peak bandwidth in MiByte/s
system.mem_ctrls.busUtil                         1.31                       # Data bus utilization in percentage
system.mem_ctrls.busUtilRead                     1.31                       # Data bus utilization in percentage for reads
system.mem_ctrls.busUtilWrite                    0.00                       # Data bus utilization in percentage for writes
system.mem_ctrls.avgRdQLen                       1.12                       # Average read queue length when enqueuing
system.mem_ctrls.avgWrQLen                       0.00                       # Average write queue length when enqueuing
system.mem_ctrls.readRowHits                    11446                       # Number of row buffer hits during reads
system.mem_ctrls.writeRowHits                       0                       # Number of row buffer hits during writes
system.mem_ctrls.readRowHitRate                 71.19                       # Row buffer hit rate for reads
system.mem_ctrls.writeRowHitRate                  nan                       # Row buffer hit rate for writes
system.mem_ctrls.avgGap                     382333.74                       # Average gap between requests
system.mem_ctrls.pageHitRate                    71.19                       # Row buffer hit rate, read and write combined
system.mem_ctrls_0.actEnergy                 17064600                       # Energy for activate commands per rank (pJ)
system.mem_ctrls_0.preEnergy                  9047280                       # Energy for precharge commands per rank (pJ)
system.mem_ctrls_0.readEnergy                58612260                       # Energy for read commands per rank (pJ)
system.mem_ctrls_0.writeEnergy                      0                       # Energy for write commands per rank (pJ)
system.mem_ctrls_0.refreshEnergy         39951600.000000                       # Energy for refresh commands per rank (pJ)
system.mem_ctrls_0.actBackEnergy             91563090                       # Energy for active background per rank (pJ)
system.mem_ctrls_0.preBackEnergy              1747200                       # Energy for precharge background per rank (pJ)
system.mem_ctrls_0.actPowerDownEnergy        96263310                       # Energy for active power-down per rank (pJ)
system.mem_ctrls_0.prePowerDownEnergy        19042560                       # Energy for precharge power-down per rank (pJ)
system.mem_ctrls_0.selfRefreshEnergy       1366707540                       # Energy for self refresh per rank (pJ)
system.mem_ctrls_0.totalEnergy             1699999440                       # Total energy per rank (pJ)
system.mem_ctrls_0.averagePower            276.564384                       # Core power per rank (mW)
system.mem_ctrls_0.totalIdleTime           5941404775                       # Total Idle time Per DRAM Rank
system.mem_ctrls_0.memoryStateTime::IDLE      2042750                       # Time in different power states
system.mem_ctrls_0.memoryStateTime::REF      16936000                       # Time in different power states
system.mem_ctrls_0.memoryStateTime::SREF   5680810250                       # Time in different power states
system.mem_ctrls_0.memoryStateTime::PRE_PDN     49586750                       # Time in different power states
system.mem_ctrls_0.memoryStateTime::ACT     186434475                       # Time in different power states
system.mem_ctrls_0.memoryStateTime::ACT_PDN    211037775                       # Time in different power states
system.mem_ctrls_1.actEnergy                 16000740                       # Energy for activate commands per rank (pJ)
system.mem_ctrls_1.preEnergy                  8485620                       # Energy for precharge commands per rank (pJ)
system.mem_ctrls_1.readEnergy                56177520                       # Energy for read commands per rank (pJ)
system.mem_ctrls_1.writeEnergy                      0                       # Energy for write commands per rank (pJ)
system.mem_ctrls_1.refreshEnergy         34419840.000000                       # Energy for refresh commands per rank (pJ)
system.mem_ctrls_1.actBackEnergy             82249860                       # Energy for active background per rank (pJ)
system.mem_ctrls_1.preBackEnergy              1529760                       # Energy for precharge background per rank (pJ)
system.mem_ctrls_1.actPowerDownEnergy        80990160                       # Energy for active power-down per rank (pJ)
system.mem_ctrls_1.prePowerDownEnergy        13439040                       # Energy for precharge power-down per rank (pJ)
system.mem_ctrls_1.selfRefreshEnergy       1383285840                       # Energy for self refresh per rank (pJ)
system.mem_ctrls_1.totalEnergy             1676578380                       # Total energy per rank (pJ)
system.mem_ctrls_1.averagePower            272.754130                       # Core power per rank (mW)
system.mem_ctrls_1.totalIdleTime           5962490284                       # Total Idle time Per DRAM Rank
system.mem_ctrls_1.memoryStateTime::IDLE      1874001                       # Time in different power states
system.mem_ctrls_1.memoryStateTime::REF      14596000                       # Time in different power states
system.mem_ctrls_1.memoryStateTime::SREF   5749885500                       # Time in different power states
system.mem_ctrls_1.memoryStateTime::PRE_PDN     34997250                       # Time in different power states
system.mem_ctrls_1.memoryStateTime::ACT     167850215                       # Time in different power states
system.mem_ctrls_1.memoryStateTime::ACT_PDN    177645034                       # Time in different power states
system.pwrStateResidencyTicks::UNDEFINED   6146848000                       # Cumulative time (in ticks) in various power states
system.cpu0.branchPred.lookups                 890178                       # Number of BP lookups
system.cpu0.branchPred.condPredicted           890178                       # Number of conditional branches predicted
system.cpu0.branchPred.condIncorrect             8585                       # Number of conditional branches incorrect
system.cpu0.branchPred.BTBLookups              468826                       # Number of BTB lookups
system.cpu0.branchPred.BTBHits                      0                       # Number of BTB hits
system.cpu0.branchPred.BTBCorrect                   0                       # Number of correct BTB predictions (this stat may not work properly.
system.cpu0.branchPred.BTBHitPct             0.000000                       # BTB Hit Percentage
system.cpu0.branchPred.usedRAS                   2354                       # Number of times the RAS was used to get a target.
system.cpu0.branchPred.RASInCorrect               462                       # Number of incorrect RAS predictions.
system.cpu0.branchPred.indirectLookups         468826                       # Number of indirect predictor lookups.
system.cpu0.branchPred.indirectHits            424689                       # Number of indirect target hits.
system.cpu0.branchPred.indirectMisses           44137                       # Number of indirect misses.
system.cpu0.branchPredindirectMispredicted         4512                       # Number of mispredicted indirect branches.
system.cpu_voltage_domain.voltage                   1                       # Voltage in Volts
system.cpu0.clk_domain.clock                      500                       # Clock period in ticks
system.cpu0.dtb.walker.pwrStateResidencyTicks::UNDEFINED   6146848000                       # Cumulative time (in ticks) in various power states
system.cpu0.apic_clk_domain.clock                8000                       # Clock period in ticks
system.cpu0.interrupts.pwrStateResidencyTicks::UNDEFINED   6146848000                       # Cumulative time (in ticks) in various power states
system.cpu0.itb.walker.pwrStateResidencyTicks::UNDEFINED   6146848000                       # Cumulative time (in ticks) in various power states
system.cpu0.workload.num_syscalls                  40                       # Number of system calls
system.cpu0.pwrStateResidencyTicks::ON     6146848000                       # Cumulative time (in ticks) in various power states
system.cpu0.numCycles                        12293697                       # number of cpu cycles simulated
system.cpu0.numWorkItemsStarted                     0                       # number of work items this cpu started
system.cpu0.numWorkItemsCompleted                   0                       # number of work items this cpu completed
system.cpu0.fetch.icacheStallCycles            871993                       # Number of cycles fetch is stalled on an Icache miss
system.cpu0.fetch.Insts                       2877494                       # Number of instructions fetch has processed
system.cpu0.fetch.Branches                     890178                       # Number of branches that fetch encountered
system.cpu0.fetch.predictedBranches            427043                       # Number of branches that fetch has predicted taken
system.cpu0.fetch.Cycles                      2406709                       # Number of cycles fetch has run and was not squashing or blocked
system.cpu0.fetch.SquashCycles                  17383                       # Number of cycles fetch has spent squashing
system.cpu0.fetch.MiscStallCycles               10829                       # Number of cycles fetch has spent waiting on interrupts, or bad addresses, or out of MSHRs
system.cpu0.fetch.NoActiveThreadStallCycles      8902639                       # Number of stall cycles due to no active thread to fetch from
system.cpu0.fetch.PendingTrapStallCycles          775                       # Number of stall cycles due to pending traps
system.cpu0.fetch.PendingQuiesceStallCycles           15                       # Number of stall cycles due to pending quiesce instructions
system.cpu0.fetch.IcacheWaitRetryStallCycles         6383                       # Number of stall cycles due to full MSHR
system.cpu0.fetch.CacheLines                   844154                       # Number of cache lines fetched
system.cpu0.fetch.IcacheSquashes                 2544                       # Number of outstanding Icache misses that were squashed
system.cpu0.fetch.rateDist::samples          12208034                       # Number of instructions fetched each cycle (Total)
system.cpu0.fetch.rateDist::mean             0.462981                       # Number of instructions fetched each cycle (Total)
system.cpu0.fetch.rateDist::stdev            1.708355                       # Number of instructions fetched each cycle (Total)
system.cpu0.fetch.rateDist::underflows              0      0.00%      0.00% # Number of instructions fetched each cycle (Total)
system.cpu0.fetch.rateDist::0                11277636     92.38%     92.38% # Number of instructions fetched each cycle (Total)
system.cpu0.fetch.rateDist::1                    8073      0.07%     92.44% # Number of instructions fetched each cycle (Total)
system.cpu0.fetch.rateDist::2                    3440      0.03%     92.47% # Number of instructions fetched each cycle (Total)
system.cpu0.fetch.rateDist::3                   12407      0.10%     92.57% # Number of instructions fetched each cycle (Total)
system.cpu0.fetch.rateDist::4                  399196      3.27%     95.84% # Number of instructions fetched each cycle (Total)
system.cpu0.fetch.rateDist::5                   12234      0.10%     95.94% # Number of instructions fetched each cycle (Total)
system.cpu0.fetch.rateDist::6                    6226      0.05%     96.00% # Number of instructions fetched each cycle (Total)
system.cpu0.fetch.rateDist::7                    5970      0.05%     96.04% # Number of instructions fetched each cycle (Total)
system.cpu0.fetch.rateDist::8                  482852      3.96%    100.00% # Number of instructions fetched each cycle (Total)
system.cpu0.fetch.rateDist::overflows               0      0.00%    100.00% # Number of instructions fetched each cycle (Total)
system.cpu0.fetch.rateDist::min_value               0                       # Number of instructions fetched each cycle (Total)
system.cpu0.fetch.rateDist::max_value               8                       # Number of instructions fetched each cycle (Total)
system.cpu0.fetch.rateDist::total            12208034                       # Number of instructions fetched each cycle (Total)
system.cpu0.fetch.branchRate                 0.072409                       # Number of branch fetches per cycle
system.cpu0.fetch.rate                       0.234063                       # Number of inst fetches per cycle
system.cpu0.decode.IdleCycles                  279558                       # Number of cycles decode is idle
system.cpu0.decode.BlockedCycles              2308734                       # Number of cycles decode is blocked
system.cpu0.decode.RunCycles                   102638                       # Number of cycles decode is running
system.cpu0.decode.UnblockCycles               605774                       # Number of cycles decode is unblocking
system.cpu0.decode.SquashCycles                  8691                       # Number of cycles decode is squashing
system.cpu0.decode.DecodedInsts               5567116                       # Number of instructions handled by decode
system.cpu0.rename.SquashCycles                  8691                       # Number of cycles rename is squashing
system.cpu0.rename.IdleCycles                  354543                       # Number of cycles rename is idle
system.cpu0.rename.BlockCycles                1393034                       # Number of cycles rename is blocking
system.cpu0.rename.serializeStallCycles          3125                       # count of cycles rename stalled for serializing inst
system.cpu0.rename.RunCycles                   313761                       # Number of cycles rename is running
system.cpu0.rename.UnblockCycles              1232241                       # Number of cycles rename is unblocking
system.cpu0.rename.RenamedInsts               5525501                       # Number of instructions processed by rename
system.cpu0.rename.ROBFullEvents               740600                       # Number of times rename has blocked due to ROB full
system.cpu0.rename.IQFullEvents                 12551                       # Number of times rename has blocked due to IQ full
system.cpu0.rename.LQFullEvents                290593                       # Number of times rename has blocked due to LQ full
system.cpu0.rename.SQFullEvents                 56038                       # Number of times rename has blocked due to SQ full
system.cpu0.rename.RenamedOperands            6509420                       # Number of destination operands rename has renamed
system.cpu0.rename.RenameLookups             11880496                       # Number of register rename lookups that rename has made
system.cpu0.rename.int_rename_lookups         5944453                       # Number of integer rename lookups
system.cpu0.rename.fp_rename_lookups            18308                       # Number of floating rename lookups
system.cpu0.rename.CommittedMaps              6012395                       # Number of HB maps that are committed
system.cpu0.rename.UndoneMaps                  497025                       # Number of HB maps that are undone due to squashing
system.cpu0.rename.serializingInsts                80                       # count of serializing insts renamed
system.cpu0.rename.tempSerializingInsts            80                       # count of temporary serializing insts renamed
system.cpu0.rename.skidInsts                  3921942                       # count of insts added to the skid buffer
system.cpu0.memDep0.insertedLoads              910379                       # Number of loads inserted to the mem dependence unit.
system.cpu0.memDep0.insertedStores              29329                       # Number of stores inserted to the mem dependence unit.
system.cpu0.memDep0.conflictingLoads            18873                       # Number of conflicting loads.
system.cpu0.memDep0.conflictingStores            2073                       # Number of conflicting stores.
system.cpu0.iq.iqInstsAdded                   5451548                       # Number of instructions added to the IQ (excludes non-spec)
system.cpu0.iq.iqNonSpecInstsAdded                202                       # Number of non-speculative instructions added to the IQ
system.cpu0.iq.iqInstsIssued                  5493495                       # Number of instructions issued
system.cpu0.iq.iqSquashedInstsIssued             6471                       # Number of squashed instructions issued
system.cpu0.iq.iqSquashedInstsExamined         328552                       # Number of squashed instructions iterated over during squash; mainly for profiling
system.cpu0.iq.iqSquashedOperandsExamined       496632                       # Number of squashed operands that are examined and possibly removed from graph
system.cpu0.iq.iqSquashedNonSpecRemoved           132                       # Number of squashed non-spec instructions that were removed
system.cpu0.iq.issued_per_cycle::samples     12208034                       # Number of insts issued each cycle
system.cpu0.iq.issued_per_cycle::mean        0.449990                       # Number of insts issued each cycle
system.cpu0.iq.issued_per_cycle::stdev       1.084383                       # Number of insts issued each cycle
system.cpu0.iq.issued_per_cycle::underflows            0      0.00%      0.00% # Number of insts issued each cycle
system.cpu0.iq.issued_per_cycle::0            9801519     80.29%     80.29% # Number of insts issued each cycle
system.cpu0.iq.issued_per_cycle::1             878609      7.20%     87.48% # Number of insts issued each cycle
system.cpu0.iq.issued_per_cycle::2             575451      4.71%     92.20% # Number of insts issued each cycle
system.cpu0.iq.issued_per_cycle::3             573999      4.70%     96.90% # Number of insts issued each cycle
system.cpu0.iq.issued_per_cycle::4             263935      2.16%     99.06% # Number of insts issued each cycle
system.cpu0.iq.issued_per_cycle::5              54802      0.45%     99.51% # Number of insts issued each cycle
system.cpu0.iq.issued_per_cycle::6              24285      0.20%     99.71% # Number of insts issued each cycle
system.cpu0.iq.issued_per_cycle::7              16945      0.14%     99.85% # Number of insts issued each cycle
system.cpu0.iq.issued_per_cycle::8              18489      0.15%    100.00% # Number of insts issued each cycle
system.cpu0.iq.issued_per_cycle::overflows            0      0.00%    100.00% # Number of insts issued each cycle
system.cpu0.iq.issued_per_cycle::min_value            0                       # Number of insts issued each cycle
system.cpu0.iq.issued_per_cycle::max_value            8                       # Number of insts issued each cycle
system.cpu0.iq.issued_per_cycle::total       12208034                       # Number of insts issued each cycle
system.cpu0.iq.fu_full::No_OpClass                  0      0.00%      0.00% # attempts to use FU when none available
system.cpu0.iq.fu_full::IntAlu                   5539     15.96%     15.96% # attempts to use FU when none available
system.cpu0.iq.fu_full::IntMult                     0      0.00%     15.96% # attempts to use FU when none available
system.cpu0.iq.fu_full::IntDiv                      0      0.00%     15.96% # attempts to use FU when none available
system.cpu0.iq.fu_full::FloatAdd                   47      0.14%     16.09% # attempts to use FU when none available
system.cpu0.iq.fu_full::FloatCmp                    0      0.00%     16.09% # attempts to use FU when none available
system.cpu0.iq.fu_full::FloatCvt                    0      0.00%     16.09% # attempts to use FU when none available
system.cpu0.iq.fu_full::FloatMult                   0      0.00%     16.09% # attempts to use FU when none available
system.cpu0.iq.fu_full::FloatMultAcc                0      0.00%     16.09% # attempts to use FU when none available
system.cpu0.iq.fu_full::FloatDiv                    0      0.00%     16.09% # attempts to use FU when none available
system.cpu0.iq.fu_full::FloatMisc                   0      0.00%     16.09% # attempts to use FU when none available
system.cpu0.iq.fu_full::FloatSqrt                   0      0.00%     16.09% # attempts to use FU when none available
system.cpu0.iq.fu_full::SimdAdd                     0      0.00%     16.09% # attempts to use FU when none available
system.cpu0.iq.fu_full::SimdAddAcc                  0      0.00%     16.09% # attempts to use FU when none available
system.cpu0.iq.fu_full::SimdAlu                     0      0.00%     16.09% # attempts to use FU when none available
system.cpu0.iq.fu_full::SimdCmp                     0      0.00%     16.09% # attempts to use FU when none available
system.cpu0.iq.fu_full::SimdCvt                     0      0.00%     16.09% # attempts to use FU when none available
system.cpu0.iq.fu_full::SimdMisc                    0      0.00%     16.09% # attempts to use FU when none available
system.cpu0.iq.fu_full::SimdMult                    0      0.00%     16.09% # attempts to use FU when none available
system.cpu0.iq.fu_full::SimdMultAcc                 0      0.00%     16.09% # attempts to use FU when none available
system.cpu0.iq.fu_full::SimdShift                   0      0.00%     16.09% # attempts to use FU when none available
system.cpu0.iq.fu_full::SimdShiftAcc                0      0.00%     16.09% # attempts to use FU when none available
system.cpu0.iq.fu_full::SimdSqrt                    0      0.00%     16.09% # attempts to use FU when none available
system.cpu0.iq.fu_full::SimdFloatAdd                0      0.00%     16.09% # attempts to use FU when none available
system.cpu0.iq.fu_full::SimdFloatAlu                0      0.00%     16.09% # attempts to use FU when none available
system.cpu0.iq.fu_full::SimdFloatCmp                0      0.00%     16.09% # attempts to use FU when none available
system.cpu0.iq.fu_full::SimdFloatCvt                0      0.00%     16.09% # attempts to use FU when none available
system.cpu0.iq.fu_full::SimdFloatDiv                0      0.00%     16.09% # attempts to use FU when none available
system.cpu0.iq.fu_full::SimdFloatMisc               0      0.00%     16.09% # attempts to use FU when none available
system.cpu0.iq.fu_full::SimdFloatMult               0      0.00%     16.09% # attempts to use FU when none available
system.cpu0.iq.fu_full::SimdFloatMultAcc            0      0.00%     16.09% # attempts to use FU when none available
system.cpu0.iq.fu_full::SimdFloatSqrt               0      0.00%     16.09% # attempts to use FU when none available
system.cpu0.iq.fu_full::MemRead                 28266     81.44%     97.53% # attempts to use FU when none available
system.cpu0.iq.fu_full::MemWrite                  707      2.04%     99.57% # attempts to use FU when none available
system.cpu0.iq.fu_full::FloatMemRead              105      0.30%     99.87% # attempts to use FU when none available
system.cpu0.iq.fu_full::FloatMemWrite              45      0.13%    100.00% # attempts to use FU when none available
system.cpu0.iq.fu_full::IprAccess                   0      0.00%    100.00% # attempts to use FU when none available
system.cpu0.iq.fu_full::InstPrefetch                0      0.00%    100.00% # attempts to use FU when none available
system.cpu0.iq.FU_type_0::No_OpClass             4204      0.08%      0.08% # Type of FU issued
system.cpu0.iq.FU_type_0::IntAlu              4402944     80.15%     80.22% # Type of FU issued
system.cpu0.iq.FU_type_0::IntMult                4147      0.08%     80.30% # Type of FU issued
system.cpu0.iq.FU_type_0::IntDiv                 1220      0.02%     80.32% # Type of FU issued
system.cpu0.iq.FU_type_0::FloatAdd               4381      0.08%     80.40% # Type of FU issued
system.cpu0.iq.FU_type_0::FloatCmp                  0      0.00%     80.40% # Type of FU issued
system.cpu0.iq.FU_type_0::FloatCvt                  0      0.00%     80.40% # Type of FU issued
system.cpu0.iq.FU_type_0::FloatMult                 0      0.00%     80.40% # Type of FU issued
system.cpu0.iq.FU_type_0::FloatMultAcc              0      0.00%     80.40% # Type of FU issued
system.cpu0.iq.FU_type_0::FloatDiv                  0      0.00%     80.40% # Type of FU issued
system.cpu0.iq.FU_type_0::FloatMisc                 0      0.00%     80.40% # Type of FU issued
system.cpu0.iq.FU_type_0::FloatSqrt                 0      0.00%     80.40% # Type of FU issued
system.cpu0.iq.FU_type_0::SimdAdd                   0      0.00%     80.40% # Type of FU issued
system.cpu0.iq.FU_type_0::SimdAddAcc                0      0.00%     80.40% # Type of FU issued
system.cpu0.iq.FU_type_0::SimdAlu                   0      0.00%     80.40% # Type of FU issued
system.cpu0.iq.FU_type_0::SimdCmp                   0      0.00%     80.40% # Type of FU issued
system.cpu0.iq.FU_type_0::SimdCvt                   0      0.00%     80.40% # Type of FU issued
system.cpu0.iq.FU_type_0::SimdMisc                  0      0.00%     80.40% # Type of FU issued
system.cpu0.iq.FU_type_0::SimdMult                  0      0.00%     80.40% # Type of FU issued
system.cpu0.iq.FU_type_0::SimdMultAcc               0      0.00%     80.40% # Type of FU issued
system.cpu0.iq.FU_type_0::SimdShift                 0      0.00%     80.40% # Type of FU issued
system.cpu0.iq.FU_type_0::SimdShiftAcc              0      0.00%     80.40% # Type of FU issued
system.cpu0.iq.FU_type_0::SimdSqrt                  0      0.00%     80.40% # Type of FU issued
system.cpu0.iq.FU_type_0::SimdFloatAdd              0      0.00%     80.40% # Type of FU issued
system.cpu0.iq.FU_type_0::SimdFloatAlu              0      0.00%     80.40% # Type of FU issued
system.cpu0.iq.FU_type_0::SimdFloatCmp              0      0.00%     80.40% # Type of FU issued
system.cpu0.iq.FU_type_0::SimdFloatCvt              0      0.00%     80.40% # Type of FU issued
system.cpu0.iq.FU_type_0::SimdFloatDiv              0      0.00%     80.40% # Type of FU issued
system.cpu0.iq.FU_type_0::SimdFloatMisc             0      0.00%     80.40% # Type of FU issued
system.cpu0.iq.FU_type_0::SimdFloatMult             0      0.00%     80.40% # Type of FU issued
system.cpu0.iq.FU_type_0::SimdFloatMultAcc            0      0.00%     80.40% # Type of FU issued
system.cpu0.iq.FU_type_0::SimdFloatSqrt             0      0.00%     80.40% # Type of FU issued
system.cpu0.iq.FU_type_0::MemRead             1047477     19.07%     99.47% # Type of FU issued
system.cpu0.iq.FU_type_0::MemWrite              24723      0.45%     99.92% # Type of FU issued
system.cpu0.iq.FU_type_0::FloatMemRead           3971      0.07%     99.99% # Type of FU issued
system.cpu0.iq.FU_type_0::FloatMemWrite           428      0.01%    100.00% # Type of FU issued
system.cpu0.iq.FU_type_0::IprAccess                 0      0.00%    100.00% # Type of FU issued
system.cpu0.iq.FU_type_0::InstPrefetch              0      0.00%    100.00% # Type of FU issued
system.cpu0.iq.FU_type_0::total               5493495                       # Type of FU issued
system.cpu0.iq.rate                          0.446855                       # Inst issue rate
system.cpu0.iq.fu_busy_cnt                      34709                       # FU busy when requested
system.cpu0.iq.fu_busy_rate                  0.006318                       # FU busy rate (busy events/executed inst)
system.cpu0.iq.int_inst_queue_reads          23217879                       # Number of integer instruction queue reads
system.cpu0.iq.int_inst_queue_writes          5764077                       # Number of integer instruction queue writes
system.cpu0.iq.int_inst_queue_wakeup_accesses      5303268                       # Number of integer instruction queue wakeup accesses
system.cpu0.iq.fp_inst_queue_reads              18325                       # Number of floating instruction queue reads
system.cpu0.iq.fp_inst_queue_writes             16284                       # Number of floating instruction queue writes
system.cpu0.iq.fp_inst_queue_wakeup_accesses         6321                       # Number of floating instruction queue wakeup accesses
system.cpu0.iq.int_alu_accesses               5514887                       # Number of integer alu accesses
system.cpu0.iq.fp_alu_accesses                   9113                       # Number of floating point alu accesses
system.cpu0.iew.lsq.thread0.forwLoads           20382                       # Number of loads that had data forwarded from stores
system.cpu0.iew.lsq.thread0.invAddrLoads            0                       # Number of loads ignored due to an invalid address
system.cpu0.iew.lsq.thread0.squashedLoads        45514                       # Number of loads squashed
system.cpu0.iew.lsq.thread0.ignoredResponses           20                       # Number of memory responses ignored because the instruction is squashed
system.cpu0.iew.lsq.thread0.memOrderViolation           66                       # Number of memory ordering violations
system.cpu0.iew.lsq.thread0.squashedStores         9831                       # Number of stores squashed
system.cpu0.iew.lsq.thread0.invAddrSwpfs            0                       # Number of software prefetches ignored due to an invalid address
system.cpu0.iew.lsq.thread0.blockedLoads            0                       # Number of blocked loads due to partial load-store forwarding
system.cpu0.iew.lsq.thread0.rescheduledLoads            3                       # Number of loads that were rescheduled
system.cpu0.iew.lsq.thread0.cacheBlocked       157884                       # Number of times an access to memory failed due to the cache being blocked
system.cpu0.iew.iewIdleCycles                       0                       # Number of cycles IEW is idle
system.cpu0.iew.iewSquashCycles                  8691                       # Number of cycles IEW is squashing
system.cpu0.iew.iewBlockCycles                 112609                       # Number of cycles IEW is blocking
system.cpu0.iew.iewUnblockCycles                 5441                       # Number of cycles IEW is unblocking
system.cpu0.iew.iewDispatchedInsts            5451750                       # Number of instructions dispatched to IQ
system.cpu0.iew.iewDispSquashedInsts             2260                       # Number of squashed instructions skipped by dispatch
system.cpu0.iew.iewDispLoadInsts               910379                       # Number of dispatched load instructions
system.cpu0.iew.iewDispStoreInsts               29329                       # Number of dispatched store instructions
system.cpu0.iew.iewDispNonSpecInsts               112                       # Number of dispatched non-speculative instructions
system.cpu0.iew.iewIQFullEvents                   586                       # Number of times the IQ has become full, causing a stall
system.cpu0.iew.iewLSQFullEvents                 4491                       # Number of times the LSQ has become full, causing a stall
system.cpu0.iew.memOrderViolationEvents            66                       # Number of memory order violations
system.cpu0.iew.predictedTakenIncorrect          1867                       # Number of branches that were predicted taken incorrectly
system.cpu0.iew.predictedNotTakenIncorrect         9040                       # Number of branches that were predicted not taken incorrectly
system.cpu0.iew.branchMispredicts               10907                       # Number of branch mispredicts detected at execute
system.cpu0.iew.iewExecutedInsts              5472923                       # Number of executed instructions
system.cpu0.iew.iewExecLoadInsts              1045516                       # Number of load instructions executed
system.cpu0.iew.iewExecSquashedInsts            20572                       # Number of squashed instructions skipped in execute
system.cpu0.iew.exec_swp                            0                       # number of swp insts executed
system.cpu0.iew.exec_nop                            0                       # number of nop insts executed
system.cpu0.iew.exec_refs                     1069467                       # number of memory reference insts executed
system.cpu0.iew.exec_branches                  839413                       # Number of branches executed
system.cpu0.iew.exec_stores                     23951                       # Number of stores executed
system.cpu0.iew.exec_rate                    0.445181                       # Inst execution rate
system.cpu0.iew.wb_sent                       5314514                       # cumulative count of insts sent to commit
system.cpu0.iew.wb_count                      5309589                       # cumulative count of insts written-back
system.cpu0.iew.wb_producers                  3957330                       # num instructions producing a value
system.cpu0.iew.wb_consumers                  5340111                       # num instructions consuming a value
system.cpu0.iew.wb_rate                      0.431895                       # insts written-back per cycle
system.cpu0.iew.wb_fanout                    0.741058                       # average fanout of values written-back
system.cpu0.commit.commitSquashedInsts         328619                       # The number of squashed insts skipped by commit
system.cpu0.commit.commitNonSpecStalls             70                       # The number of times commit has been forced to stall to communicate backwards
system.cpu0.commit.branchMispredicts             8647                       # The number of times a branch was mispredicted
system.cpu0.commit.committed_per_cycle::samples      3255845                       # Number of insts commited each cycle
system.cpu0.commit.committed_per_cycle::mean     1.573539                       # Number of insts commited each cycle
system.cpu0.commit.committed_per_cycle::stdev     2.678056                       # Number of insts commited each cycle
system.cpu0.commit.committed_per_cycle::underflows            0      0.00%      0.00% # Number of insts commited each cycle
system.cpu0.commit.committed_per_cycle::0      1971730     60.56%     60.56% # Number of insts commited each cycle
system.cpu0.commit.committed_per_cycle::1       418936     12.87%     73.43% # Number of insts commited each cycle
system.cpu0.commit.committed_per_cycle::2        15834      0.49%     73.91% # Number of insts commited each cycle
system.cpu0.commit.committed_per_cycle::3       412984     12.68%     86.60% # Number of insts commited each cycle
system.cpu0.commit.committed_per_cycle::4         9102      0.28%     86.88% # Number of insts commited each cycle
system.cpu0.commit.committed_per_cycle::5         5385      0.17%     87.04% # Number of insts commited each cycle
system.cpu0.commit.committed_per_cycle::6         1664      0.05%     87.09% # Number of insts commited each cycle
system.cpu0.commit.committed_per_cycle::7         1355      0.04%     87.14% # Number of insts commited each cycle
system.cpu0.commit.committed_per_cycle::8       418855     12.86%    100.00% # Number of insts commited each cycle
system.cpu0.commit.committed_per_cycle::overflows            0      0.00%    100.00% # Number of insts commited each cycle
system.cpu0.commit.committed_per_cycle::min_value            0                       # Number of insts commited each cycle
system.cpu0.commit.committed_per_cycle::max_value            8                       # Number of insts commited each cycle
system.cpu0.commit.committed_per_cycle::total      3255845                       # Number of insts commited each cycle
system.cpu0.commit.committedInsts             2596103                       # Number of instructions committed
system.cpu0.commit.committedOps               5123198                       # Number of ops (including micro ops) committed
system.cpu0.commit.swp_count                        0                       # Number of s/w prefetches committed
system.cpu0.commit.refs                        884363                       # Number of memory references committed
system.cpu0.commit.loads                       864865                       # Number of loads committed
system.cpu0.commit.membars                         20                       # Number of memory barriers committed
system.cpu0.commit.branches                    826422                       # Number of branches committed
system.cpu0.commit.fp_insts                      3710                       # Number of committed floating point instructions.
system.cpu0.commit.int_insts                  5119665                       # Number of committed integer instructions.
system.cpu0.commit.function_calls                 707                       # Number of function calls committed.
system.cpu0.commit.op_class_0::No_OpClass         1358      0.03%      0.03% # Class of committed instruction
system.cpu0.commit.op_class_0::IntAlu         4229773     82.56%     82.59% # Class of committed instruction
system.cpu0.commit.op_class_0::IntMult           4127      0.08%     82.67% # Class of committed instruction
system.cpu0.commit.op_class_0::IntDiv            1186      0.02%     82.69% # Class of committed instruction
system.cpu0.commit.op_class_0::FloatAdd          2391      0.05%     82.74% # Class of committed instruction
system.cpu0.commit.op_class_0::FloatCmp             0      0.00%     82.74% # Class of committed instruction
system.cpu0.commit.op_class_0::FloatCvt             0      0.00%     82.74% # Class of committed instruction
system.cpu0.commit.op_class_0::FloatMult            0      0.00%     82.74% # Class of committed instruction
system.cpu0.commit.op_class_0::FloatMultAcc            0      0.00%     82.74% # Class of committed instruction
system.cpu0.commit.op_class_0::FloatDiv             0      0.00%     82.74% # Class of committed instruction
system.cpu0.commit.op_class_0::FloatMisc            0      0.00%     82.74% # Class of committed instruction
system.cpu0.commit.op_class_0::FloatSqrt            0      0.00%     82.74% # Class of committed instruction
system.cpu0.commit.op_class_0::SimdAdd              0      0.00%     82.74% # Class of committed instruction
system.cpu0.commit.op_class_0::SimdAddAcc            0      0.00%     82.74% # Class of committed instruction
system.cpu0.commit.op_class_0::SimdAlu              0      0.00%     82.74% # Class of committed instruction
system.cpu0.commit.op_class_0::SimdCmp              0      0.00%     82.74% # Class of committed instruction
system.cpu0.commit.op_class_0::SimdCvt              0      0.00%     82.74% # Class of committed instruction
system.cpu0.commit.op_class_0::SimdMisc             0      0.00%     82.74% # Class of committed instruction
system.cpu0.commit.op_class_0::SimdMult             0      0.00%     82.74% # Class of committed instruction
system.cpu0.commit.op_class_0::SimdMultAcc            0      0.00%     82.74% # Class of committed instruction
system.cpu0.commit.op_class_0::SimdShift            0      0.00%     82.74% # Class of committed instruction
system.cpu0.commit.op_class_0::SimdShiftAcc            0      0.00%     82.74% # Class of committed instruction
system.cpu0.commit.op_class_0::SimdSqrt             0      0.00%     82.74% # Class of committed instruction
system.cpu0.commit.op_class_0::SimdFloatAdd            0      0.00%     82.74% # Class of committed instruction
system.cpu0.commit.op_class_0::SimdFloatAlu            0      0.00%     82.74% # Class of committed instruction
system.cpu0.commit.op_class_0::SimdFloatCmp            0      0.00%     82.74% # Class of committed instruction
system.cpu0.commit.op_class_0::SimdFloatCvt            0      0.00%     82.74% # Class of committed instruction
system.cpu0.commit.op_class_0::SimdFloatDiv            0      0.00%     82.74% # Class of committed instruction
system.cpu0.commit.op_class_0::SimdFloatMisc            0      0.00%     82.74% # Class of committed instruction
system.cpu0.commit.op_class_0::SimdFloatMult            0      0.00%     82.74% # Class of committed instruction
system.cpu0.commit.op_class_0::SimdFloatMultAcc            0      0.00%     82.74% # Class of committed instruction
system.cpu0.commit.op_class_0::SimdFloatSqrt            0      0.00%     82.74% # Class of committed instruction
system.cpu0.commit.op_class_0::MemRead         864005     16.86%     99.60% # Class of committed instruction
system.cpu0.commit.op_class_0::MemWrite         19098      0.37%     99.98% # Class of committed instruction
system.cpu0.commit.op_class_0::FloatMemRead          860      0.02%     99.99% # Class of committed instruction
system.cpu0.commit.op_class_0::FloatMemWrite          400      0.01%    100.00% # Class of committed instruction
system.cpu0.commit.op_class_0::IprAccess            0      0.00%    100.00% # Class of committed instruction
system.cpu0.commit.op_class_0::InstPrefetch            0      0.00%    100.00% # Class of committed instruction
system.cpu0.commit.op_class_0::total          5123198                       # Class of committed instruction
system.cpu0.commit.bw_lim_events               418855                       # number cycles where commit BW limit reached
system.cpu0.rob.rob_reads                     8288794                       # The number of ROB reads
system.cpu0.rob.rob_writes                   10953823                       # The number of ROB writes
system.cpu0.timesIdled                            801                       # Number of times that the entire CPU went into an idle state and unscheduled itself
system.cpu0.idleCycles                          85663                       # Total number of cycles that the CPU has spent unscheduled due to idling
system.cpu0.committedInsts                    2596103                       # Number of Instructions Simulated
system.cpu0.committedOps                      5123198                       # Number of Ops (including micro ops) Simulated
system.cpu0.cpi                              4.735443                       # CPI: Cycles Per Instruction
system.cpu0.cpi_total                        4.735443                       # CPI: Total CPI of All Threads
system.cpu0.ipc                              0.211173                       # IPC: Instructions Per Cycle
system.cpu0.ipc_total                        0.211173                       # IPC: Total IPC of All Threads
system.cpu0.int_regfile_reads                 5882343                       # number of integer regfile reads
system.cpu0.int_regfile_writes                4446200                       # number of integer regfile writes
system.cpu0.fp_regfile_reads                     9395                       # number of floating regfile reads
system.cpu0.fp_regfile_writes                    5503                       # number of floating regfile writes
system.cpu0.cc_regfile_reads                  2621124                       # number of cc regfile reads
system.cpu0.cc_regfile_writes                 1778835                       # number of cc regfile writes
system.cpu0.misc_regfile_reads                3164400                       # number of misc regfile reads
system.cpu1.branchPred.lookups                1814084                       # Number of BP lookups
system.cpu1.branchPred.condPredicted          1814084                       # Number of conditional branches predicted
system.cpu1.branchPred.condIncorrect             8833                       # Number of conditional branches incorrect
system.cpu1.branchPred.BTBLookups             1276634                       # Number of BTB lookups
system.cpu1.branchPred.BTBHits                      0                       # Number of BTB hits
system.cpu1.branchPred.BTBCorrect                   0                       # Number of correct BTB predictions (this stat may not work properly.
system.cpu1.branchPred.BTBHitPct             0.000000                       # BTB Hit Percentage
system.cpu1.branchPred.usedRAS                 117536                       # Number of times the RAS was used to get a target.
system.cpu1.branchPred.RASInCorrect               473                       # Number of incorrect RAS predictions.
system.cpu1.branchPred.indirectLookups        1276634                       # Number of indirect predictor lookups.
system.cpu1.branchPred.indirectHits            943292                       # Number of indirect target hits.
system.cpu1.branchPred.indirectMisses          333342                       # Number of indirect misses.
system.cpu1.branchPredindirectMispredicted         4717                       # Number of mispredicted indirect branches.
system.cpu1.clk_domain.clock                      500                       # Clock period in ticks
system.cpu1.dtb.walker.pwrStateResidencyTicks::UNDEFINED   6146848000                       # Cumulative time (in ticks) in various power states
system.cpu1.apic_clk_domain.clock                8000                       # Clock period in ticks
system.cpu1.interrupts.pwrStateResidencyTicks::UNDEFINED   6146848000                       # Cumulative time (in ticks) in various power states
system.cpu1.itb.walker.pwrStateResidencyTicks::UNDEFINED   6146848000                       # Cumulative time (in ticks) in various power states
system.cpu1.workload.num_syscalls              115210                       # Number of system calls
system.cpu1.pwrStateResidencyTicks::ON     6146848000                       # Cumulative time (in ticks) in various power states
system.cpu1.numCycles                        12293697                       # number of cpu cycles simulated
system.cpu1.numWorkItemsStarted                     0                       # number of work items this cpu started
system.cpu1.numWorkItemsCompleted                   0                       # number of work items this cpu completed
system.cpu1.fetch.icacheStallCycles           1680816                       # Number of cycles fetch is stalled on an Icache miss
system.cpu1.fetch.Insts                       5256306                       # Number of instructions fetch has processed
system.cpu1.fetch.Branches                    1814084                       # Number of branches that fetch encountered
system.cpu1.fetch.predictedBranches           1060828                       # Number of branches that fetch has predicted taken
system.cpu1.fetch.Cycles                     10502159                       # Number of cycles fetch has run and was not squashing or blocked
system.cpu1.fetch.SquashCycles                  17847                       # Number of cycles fetch has spent squashing
system.cpu1.fetch.TlbCycles                         2                       # Number of cycles fetch has spent waiting for tlb
system.cpu1.fetch.MiscStallCycles               11355                       # Number of cycles fetch has spent waiting on interrupts, or bad addresses, or out of MSHRs
system.cpu1.fetch.PendingTrapStallCycles          541                       # Number of stall cycles due to pending traps
system.cpu1.fetch.PendingQuiesceStallCycles           15                       # Number of stall cycles due to pending quiesce instructions
system.cpu1.fetch.IcacheWaitRetryStallCycles         6995                       # Number of stall cycles due to full MSHR
system.cpu1.fetch.CacheLines                  1651085                       # Number of cache lines fetched
system.cpu1.fetch.IcacheSquashes                 2673                       # Number of outstanding Icache misses that were squashed
system.cpu1.fetch.rateDist::samples          12210806                       # Number of instructions fetched each cycle (Total)
system.cpu1.fetch.rateDist::mean             0.855483                       # Number of instructions fetched each cycle (Total)
system.cpu1.fetch.rateDist::stdev            2.212167                       # Number of instructions fetched each cycle (Total)
system.cpu1.fetch.rateDist::underflows              0      0.00%      0.00% # Number of instructions fetched each cycle (Total)
system.cpu1.fetch.rateDist::0                10308156     84.42%     84.42% # Number of instructions fetched each cycle (Total)
system.cpu1.fetch.rateDist::1                  181080      1.48%     85.90% # Number of instructions fetched each cycle (Total)
system.cpu1.fetch.rateDist::2                   61112      0.50%     86.40% # Number of instructions fetched each cycle (Total)
system.cpu1.fetch.rateDist::3                  182046      1.49%     87.89% # Number of instructions fetched each cycle (Total)
system.cpu1.fetch.rateDist::4                  402331      3.29%     91.19% # Number of instructions fetched each cycle (Total)
system.cpu1.fetch.rateDist::5                   66252      0.54%     91.73% # Number of instructions fetched each cycle (Total)
system.cpu1.fetch.rateDist::6                  121776      1.00%     92.73% # Number of instructions fetched each cycle (Total)
system.cpu1.fetch.rateDist::7                  178970      1.47%     94.19% # Number of instructions fetched each cycle (Total)
system.cpu1.fetch.rateDist::8                  709083      5.81%    100.00% # Number of instructions fetched each cycle (Total)
system.cpu1.fetch.rateDist::overflows               0      0.00%    100.00% # Number of instructions fetched each cycle (Total)
system.cpu1.fetch.rateDist::min_value               0                       # Number of instructions fetched each cycle (Total)
system.cpu1.fetch.rateDist::max_value               8                       # Number of instructions fetched each cycle (Total)
system.cpu1.fetch.rateDist::total            12210806                       # Number of instructions fetched each cycle (Total)
system.cpu1.fetch.branchRate                 0.147562                       # Number of branch fetches per cycle
system.cpu1.fetch.rate                       0.427561                       # Number of inst fetches per cycle
system.cpu1.decode.IdleCycles                  395992                       # Number of cycles decode is idle
system.cpu1.decode.BlockedCycles             10355665                       # Number of cycles decode is blocked
system.cpu1.decode.RunCycles                   669128                       # Number of cycles decode is running
system.cpu1.decode.UnblockCycles               781098                       # Number of cycles decode is unblocking
system.cpu1.decode.SquashCycles                  8923                       # Number of cycles decode is squashing
system.cpu1.decode.DecodedInsts              10359390                       # Number of instructions handled by decode
system.cpu1.rename.SquashCycles                  8923                       # Number of cycles rename is squashing
system.cpu1.rename.IdleCycles                  631186                       # Number of cycles rename is idle
system.cpu1.rename.BlockCycles                1389318                       # Number of cycles rename is blocking
system.cpu1.rename.serializeStallCycles       7878219                       # count of cycles rename stalled for serializing inst
system.cpu1.rename.RunCycles                   932081                       # Number of cycles rename is running
system.cpu1.rename.UnblockCycles              1371079                       # Number of cycles rename is unblocking
system.cpu1.rename.RenamedInsts              10316929                       # Number of instructions processed by rename
system.cpu1.rename.ROBFullEvents               712957                       # Number of times rename has blocked due to ROB full
system.cpu1.rename.IQFullEvents                 13235                       # Number of times rename has blocked due to IQ full
system.cpu1.rename.LQFullEvents                281946                       # Number of times rename has blocked due to LQ full
system.cpu1.rename.SQFullEvents                 38407                       # Number of times rename has blocked due to SQ full
system.cpu1.rename.RenamedOperands           11170819                       # Number of destination operands rename has renamed
system.cpu1.rename.RenameLookups             23619455                       # Number of register rename lookups that rename has made
system.cpu1.rename.int_rename_lookups        11758714                       # Number of integer rename lookups
system.cpu1.rename.fp_rename_lookups            18969                       # Number of floating rename lookups
system.cpu1.rename.CommittedMaps             10654757                       # Number of HB maps that are committed
system.cpu1.rename.UndoneMaps                  516062                       # Number of HB maps that are undone due to squashing
system.cpu1.rename.serializingInsts            115253                       # count of serializing insts renamed
system.cpu1.rename.tempSerializingInsts        115254                       # count of temporary serializing insts renamed
system.cpu1.rename.skidInsts                  4793745                       # count of insts added to the skid buffer
system.cpu1.memDep0.insertedLoads             1463534                       # Number of loads inserted to the mem dependence unit.
system.cpu1.memDep0.insertedStores             138584                       # Number of stores inserted to the mem dependence unit.
system.cpu1.memDep0.conflictingLoads             4818                       # Number of conflicting loads.
system.cpu1.memDep0.conflictingStores             657                       # Number of conflicting stores.
system.cpu1.iq.iqInstsAdded                  10125932                       # Number of instructions added to the IQ (excludes non-spec)
system.cpu1.iq.iqNonSpecInstsAdded             115360                       # Number of non-speculative instructions added to the IQ
system.cpu1.iq.iqInstsIssued                 10246530                       # Number of instructions issued
system.cpu1.iq.iqSquashedInstsIssued             6844                       # Number of squashed instructions issued
system.cpu1.iq.iqSquashedInstsExamined         342236                       # Number of squashed instructions iterated over during squash; mainly for profiling
system.cpu1.iq.iqSquashedOperandsExamined       516059                       # Number of squashed operands that are examined and possibly removed from graph
system.cpu1.iq.iqSquashedNonSpecRemoved           120                       # Number of squashed non-spec instructions that were removed
system.cpu1.iq.issued_per_cycle::samples     12210806                       # Number of insts issued each cycle
system.cpu1.iq.issued_per_cycle::mean        0.839136                       # Number of insts issued each cycle
system.cpu1.iq.issued_per_cycle::stdev       1.617440                       # Number of insts issued each cycle
system.cpu1.iq.issued_per_cycle::underflows            0      0.00%      0.00% # Number of insts issued each cycle
system.cpu1.iq.issued_per_cycle::0            8383050     68.65%     68.65% # Number of insts issued each cycle
system.cpu1.iq.issued_per_cycle::1            1417128     11.61%     80.26% # Number of insts issued each cycle
system.cpu1.iq.issued_per_cycle::2             691583      5.66%     85.92% # Number of insts issued each cycle
system.cpu1.iq.issued_per_cycle::3             742752      6.08%     92.00% # Number of insts issued each cycle
[...]
system.ruby.Directory_Controller.L_NO_W.Memory_Data          645      0.00%      0.00%
system.ruby.Directory_Controller.NO_W.Lockdown          645      0.00%      0.00%
system.ruby.Directory_Controller.NO_W.Memory_Data        15432      0.00%      0.00%
system.ruby.L1Cache_Controller.Load      |      475806     15.93%     15.93% |      980248     32.81%     48.74% |      888412     29.74%     78.47% |      626785     20.98%     99.45% |       16384      0.55%    100.00%
system.ruby.L1Cache_Controller.Load::total      2987635                      
system.ruby.L1Cache_Controller.Ifetch    |      843983     16.87%     16.87% |     1650906     33.01%     49.88% |     1397360     27.94%     77.82% |     1109640     22.18%    100.00% |           0      0.00%    100.00%
system.ruby.L1Cache_Controller.Ifetch::total      5001889                      
system.ruby.L1Cache_Controller.Store     |       19959      5.96%      5.96% |      128886     38.48%     44.44% |      120081     35.85%     80.28% |       49658     14.82%     95.11% |       16384      4.89%    100.00%
system.ruby.L1Cache_Controller.Store::total       334968                      
system.ruby.L1Cache_Controller.L1_Replacement |        2775     23.80%     23.80% |        2590     22.21%     46.00% |        3536     30.32%     76.32% |        2505     21.48%     97.80% |         256      2.20%    100.00%
system.ruby.L1Cache_Controller.L1_Replacement::total        11662                      
system.ruby.L1Cache_Controller.Data_Shared |         420     25.07%     25.07% |         429     25.61%     50.69% |         418     24.96%     75.64% |         403     24.06%     99.70% |           5      0.30%    100.00%
system.ruby.L1Cache_Controller.Data_Shared::total         1675                      
system.ruby.L1Cache_Controller.Data_All_Tokens |        3917     23.02%     23.02% |        3721     21.87%     44.89% |        4684     27.53%     72.42% |        3669     21.56%     93.98% |        1024      6.02%    100.00%
system.ruby.L1Cache_Controller.Data_All_Tokens::total        17015                      
system.ruby.L1Cache_Controller.Transient_Local_GETX |        2740     19.35%     19.35% |        2937     20.74%     40.09% |        1969     13.91%     54.00% |        2979     21.04%     75.04% |        3535     24.96%    100.00%
system.ruby.L1Cache_Controller.Transient_Local_GETX::total        14160                      
system.ruby.L1Cache_Controller.Transient_Local_GETS |       11613     19.16%     19.16% |       11603     19.15%     38.31% |       11619     19.17%     57.48% |       11639     19.21%     76.69% |       14126     23.31%    100.00%
system.ruby.L1Cache_Controller.Transient_Local_GETS::total        60600                      
system.ruby.L1Cache_Controller.Persistent_GETX |         137     19.57%     19.57% |         133     19.00%     38.57% |         133     19.00%     57.57% |         122     17.43%     75.00% |         175     25.00%    100.00%
system.ruby.L1Cache_Controller.Persistent_GETX::total          700                      
system.ruby.L1Cache_Controller.Persistent_GETS |         577     19.39%     19.39% |         564     18.95%     38.34% |         554     18.62%     56.96% |         552     18.55%     75.50% |         729     24.50%    100.00%
system.ruby.L1Cache_Controller.Persistent_GETS::total         2976                      
system.ruby.L1Cache_Controller.Own_Lock_or_Unlock |        1124     20.38%     20.38% |        1141     20.69%     41.08% |        1151     20.87%     61.95% |        1164     21.11%     83.06% |         934     16.94%    100.00%
system.ruby.L1Cache_Controller.Own_Lock_or_Unlock::total         5514                      
system.ruby.L1Cache_Controller.Request_Timeout |        1262     26.25%     26.25% |        1180     24.54%     50.79% |        1329     27.64%     78.43% |        1022     21.26%     99.69% |          15      0.31%    100.00%
system.ruby.L1Cache_Controller.Request_Timeout::total         4808                      
system.ruby.L1Cache_Controller.Use_TimeoutNoStarvers |        3917     23.02%     23.02% |        3719     21.86%     44.88% |        4684     27.53%     72.42% |        3669     21.57%     93.98% |        1024      6.02%    100.00%
system.ruby.L1Cache_Controller.Use_TimeoutNoStarvers::total        17013                      
system.ruby.L1Cache_Controller.NP.Load   |        2266     22.43%     22.43% |        2283     22.60%     45.03% |        2277     22.54%     67.56% |        2253     22.30%     89.86% |        1024     10.14%    100.00%
system.ruby.L1Cache_Controller.NP.Load::total        10103                      
system.ruby.L1Cache_Controller.NP.Ifetch |        1271     25.18%     25.18% |        1264     25.04%     50.23% |        1254     24.85%     75.07% |        1258     24.93%    100.00% |           0      0.00%    100.00%
system.ruby.L1Cache_Controller.NP.Ifetch::total         5047                      
system.ruby.L1Cache_Controller.NP.Store  |         768     22.57%     22.57% |         573     16.84%     39.42% |        1537     45.18%     84.60% |         524     15.40%    100.00% |           0      0.00%    100.00%
system.ruby.L1Cache_Controller.NP.Store::total         3402                      
system.ruby.L1Cache_Controller.NP.Transient_Local_GETX |        2740     19.35%     19.35% |        2937     20.74%     40.10% |        1969     13.91%     54.00% |        2977     21.03%     75.03% |        3535     24.97%    100.00%
system.ruby.L1Cache_Controller.NP.Transient_Local_GETX::total        14158                      
system.ruby.L1Cache_Controller.NP.Transient_Local_GETS |       11357     18.93%     18.93% |       11536     19.22%     38.15% |       11366     18.94%     57.09% |       11630     19.38%     76.47% |       14120     23.53%    100.00%
system.ruby.L1Cache_Controller.NP.Transient_Local_GETS::total        60009                      
system.ruby.L1Cache_Controller.NP.Own_Lock_or_Unlock |         714     19.42%     19.42% |         697     18.96%     38.38% |         687     18.69%     57.07% |         674     18.34%     75.41% |         904     24.59%    100.00%
system.ruby.L1Cache_Controller.NP.Own_Lock_or_Unlock::total         3676                      
system.ruby.L1Cache_Controller.I.L1_Replacement |           2      3.92%      3.92% |           3      5.88%      9.80% |          46     90.20%    100.00% |           0      0.00%    100.00% |           0      0.00%    100.00%
system.ruby.L1Cache_Controller.I.L1_Replacement::total           51                      
system.ruby.L1Cache_Controller.S.Load    |        4546      0.52%      0.52% |      235106     27.04%     27.56% |      549755     63.23%     90.79% |       80010      9.20%     99.99% |          75      0.01%    100.00%
system.ruby.L1Cache_Controller.S.Load::total       869492                      
system.ruby.L1Cache_Controller.S.Ifetch  |      395143     19.62%     19.62% |      576932     28.64%     48.26% |      378169     18.77%     67.03% |      664115     32.97%    100.00% |           0      0.00%    100.00%
system.ruby.L1Cache_Controller.S.Ifetch::total      2014359                      
system.ruby.L1Cache_Controller.S.Store   |          32     23.19%     23.19% |          30     21.74%     44.93% |          34     24.64%     69.57% |          37     26.81%     96.38% |           5      3.62%    100.00%
system.ruby.L1Cache_Controller.S.Store::total          138                      
system.ruby.L1Cache_Controller.S.L1_Replacement |         219     23.35%     23.35% |         234     24.95%     48.29% |         299     31.88%     80.17% |         186     19.83%    100.00% |           0      0.00%    100.00%
system.ruby.L1Cache_Controller.S.L1_Replacement::total          938                      
system.ruby.L1Cache_Controller.O.Transient_Local_GETX |           0      0.00%      0.00% |           0      0.00%      0.00% |           0      0.00%      0.00% |           2    100.00%    100.00% |           0      0.00%    100.00%
system.ruby.L1Cache_Controller.O.Transient_Local_GETX::total            2                      
system.ruby.L1Cache_Controller.M.Load    |       15116     19.29%     19.29% |       16422     20.95%     40.24% |       17076     21.79%     62.02% |       15853     20.23%     82.25% |       13914     17.75%    100.00%
system.ruby.L1Cache_Controller.M.Load::total        78381                      
system.ruby.L1Cache_Controller.M.Ifetch  |      447140     15.00%     15.00% |     1072274     35.97%     50.97% |     1017513     34.14%     85.11% |      443832     14.89%    100.00% |           0      0.00%    100.00%
system.ruby.L1Cache_Controller.M.Ifetch::total      2980759                      
system.ruby.L1Cache_Controller.M.Store   |          49      4.02%      4.02% |          51      4.18%      8.20% |          50      4.10%     12.31% |          50      4.10%     16.41% |        1019     83.59%    100.00%
system.ruby.L1Cache_Controller.M.Store::total         1219                      
system.ruby.L1Cache_Controller.M.L1_Replacement |        2037     24.68%     24.68% |        1844     22.35%     47.03% |        2575     31.20%     78.24% |        1796     21.76%    100.00% |           0      0.00%    100.00%
system.ruby.L1Cache_Controller.M.L1_Replacement::total         8252                      
system.ruby.L1Cache_Controller.M.Transient_Local_GETS |           0      0.00%      0.00% |           0      0.00%      0.00% |           0      0.00%      0.00% |           2    100.00%    100.00% |           0      0.00%    100.00%
system.ruby.L1Cache_Controller.M.Transient_Local_GETS::total            2                      
system.ruby.L1Cache_Controller.M.Own_Lock_or_Unlock |         167     22.48%     22.48% |         179     24.09%     46.57% |         190     25.57%     72.14% |         192     25.84%     97.98% |          15      2.02%    100.00%
system.ruby.L1Cache_Controller.M.Own_Lock_or_Unlock::total          743                      
system.ruby.L1Cache_Controller.MM.Load   |      442475     22.31%     22.31% |      715020     36.05%     58.36% |      308220     15.54%     73.90% |      517646     26.10%    100.00% |           0      0.00%    100.00%
system.ruby.L1Cache_Controller.MM.Load::total      1983361                      
system.ruby.L1Cache_Controller.MM.Store  |       14510      4.70%      4.70% |      125605     40.70%     45.40% |      106205     34.41%     79.81% |       46969     15.22%     95.03% |       15355      4.97%    100.00%
system.ruby.L1Cache_Controller.MM.Store::total       308644                      
system.ruby.L1Cache_Controller.MM.L1_Replacement |         517     21.36%     21.36% |         509     21.03%     42.40% |         615     25.41%     67.81% |         523     21.61%     89.42% |         256     10.58%    100.00%
system.ruby.L1Cache_Controller.MM.L1_Replacement::total         2420                      
system.ruby.L1Cache_Controller.MM.Transient_Local_GETS |         256     43.46%     43.46% |          67     11.38%     54.84% |         253     42.95%     97.79% |           7      1.19%     98.98% |           6      1.02%    100.00%
system.ruby.L1Cache_Controller.MM.Transient_Local_GETS::total          589                      
system.ruby.L1Cache_Controller.MM.Own_Lock_or_Unlock |          38     21.59%     21.59% |          43     24.43%     46.02% |          42     23.86%     69.89% |          53     30.11%    100.00% |           0      0.00%    100.00%
system.ruby.L1Cache_Controller.MM.Own_Lock_or_Unlock::total          176                      
system.ruby.L1Cache_Controller.M_W.Load  |       11367     24.62%     24.62% |       11386     24.66%     49.29% |       11045     23.93%     73.21% |       10994     23.82%     97.03% |        1371      2.97%    100.00%
system.ruby.L1Cache_Controller.M_W.Load::total        46163                      
system.ruby.L1Cache_Controller.M_W.Ifetch |         429     24.88%     24.88% |         436     25.29%     50.17% |         424     24.59%     74.77% |         435     25.23%    100.00% |           0      0.00%    100.00%
system.ruby.L1Cache_Controller.M_W.Ifetch::total         1724                      
system.ruby.L1Cache_Controller.M_W.Store |          10     24.39%     24.39% |          12     29.27%     53.66% |           9     21.95%     75.61% |          10     24.39%    100.00% |           0      0.00%    100.00%
system.ruby.L1Cache_Controller.M_W.Store::total           41                      
system.ruby.L1Cache_Controller.M_W.L1_Replacement |           0      0.00%      0.00% |           0      0.00%      0.00% |           1    100.00%    100.00% |           0      0.00%    100.00% |           0      0.00%    100.00%
system.ruby.L1Cache_Controller.M_W.L1_Replacement::total            1                      
system.ruby.L1Cache_Controller.M_W.Own_Lock_or_Unlock |          19     22.62%     22.62% |          19     22.62%     45.24% |          21     25.00%     70.24% |          25     29.76%    100.00% |           0      0.00%    100.00%
system.ruby.L1Cache_Controller.M_W.Own_Lock_or_Unlock::total           84                      
system.ruby.L1Cache_Controller.M_W.Use_TimeoutNoStarvers |        3107     23.13%     23.13% |        3104     23.11%     46.24% |        3104     23.11%     69.35% |        3098     23.06%     92.41% |        1019      7.59%    100.00%
system.ruby.L1Cache_Controller.M_W.Use_TimeoutNoStarvers::total        13432                      
system.ruby.L1Cache_Controller.MM_W.Load |          36     26.67%     26.67% |          31     22.96%     49.63% |          39     28.89%     78.52% |          29     21.48%    100.00% |           0      0.00%    100.00%
system.ruby.L1Cache_Controller.MM_W.Load::total          135                      
system.ruby.L1Cache_Controller.MM_W.Store |        4590     21.33%     21.33% |        2615     12.15%     33.47% |       12246     56.89%     90.37% |        2068      9.61%     99.98% |           5      0.02%    100.00%
system.ruby.L1Cache_Controller.MM_W.Store::total        21524                      
system.ruby.L1Cache_Controller.MM_W.Own_Lock_or_Unlock |           9     29.03%     29.03% |           6     19.35%     48.39% |           5     16.13%     64.52% |          11     35.48%    100.00% |           0      0.00%    100.00%
system.ruby.L1Cache_Controller.MM_W.Own_Lock_or_Unlock::total           31                      
system.ruby.L1Cache_Controller.MM_W.Use_TimeoutNoStarvers |         810     22.62%     22.62% |         615     17.17%     39.79% |        1580     44.12%     83.92% |         571     15.95%     99.86% |           5      0.14%    100.00%
system.ruby.L1Cache_Controller.MM_W.Use_TimeoutNoStarvers::total         3581                      
system.ruby.L1Cache_Controller.IM.Data_All_Tokens |         768     22.57%     22.57% |         573     16.84%     39.42% |        1537     45.18%     84.60% |         524     15.40%    100.00% |           0      0.00%    100.00%
system.ruby.L1Cache_Controller.IM.Data_All_Tokens::total         3402                      
system.ruby.L1Cache_Controller.IM.Own_Lock_or_Unlock |          29     20.14%     20.14% |          36     25.00%     45.14% |          37     25.69%     70.83% |          42     29.17%    100.00% |           0      0.00%    100.00%
system.ruby.L1Cache_Controller.IM.Own_Lock_or_Unlock::total          144                      
system.ruby.L1Cache_Controller.IM.Request_Timeout |         109     21.00%     21.00% |         153     29.48%     50.48% |         151     29.09%     79.58% |         106     20.42%    100.00% |           0      0.00%    100.00%
system.ruby.L1Cache_Controller.IM.Request_Timeout::total          519                      
system.ruby.L1Cache_Controller.SM.Data_All_Tokens |          32     23.19%     23.19% |          30     21.74%     44.93% |          34     24.64%     69.57% |          37     26.81%     96.38% |           5      3.62%    100.00%
system.ruby.L1Cache_Controller.SM.Data_All_Tokens::total          138                      
system.ruby.L1Cache_Controller.IS.Data_Shared |         420     25.07%     25.07% |         429     25.61%     50.69% |         418     24.96%     75.64% |         403     24.06%     99.70% |           5      0.30%    100.00%
system.ruby.L1Cache_Controller.IS.Data_Shared::total         1675                      
system.ruby.L1Cache_Controller.IS.Data_All_Tokens |        3117     23.13%     23.13% |        3118     23.14%     46.27% |        3113     23.10%     69.37% |        3108     23.06%     92.44% |        1019      7.56%    100.00%
system.ruby.L1Cache_Controller.IS.Data_All_Tokens::total        13475                      
system.ruby.L1Cache_Controller.IS.Own_Lock_or_Unlock |         148     22.42%     22.42% |         161     24.39%     46.82% |         169     25.61%     72.42% |         167     25.30%     97.73% |          15      2.27%    100.00%
system.ruby.L1Cache_Controller.IS.Own_Lock_or_Unlock::total          660                      
system.ruby.L1Cache_Controller.IS.Request_Timeout |        1153     26.88%     26.88% |        1027     23.94%     50.83% |        1178     27.47%     78.29% |         916     21.36%     99.65% |          15      0.35%    100.00%
system.ruby.L1Cache_Controller.IS.Request_Timeout::total         4289                      
system.ruby.L1Cache_Controller.I_L.Persistent_GETX |         137     19.57%     19.57% |         133     19.00%     38.57% |         133     19.00%     57.57% |         122     17.43%     75.00% |         175     25.00%    100.00%
system.ruby.L1Cache_Controller.I_L.Persistent_GETX::total          700                      
system.ruby.L1Cache_Controller.I_L.Persistent_GETS |         577     19.39%     19.39% |         564     18.95%     38.34% |         554     18.62%     56.96% |         552     18.55%     75.50% |         729     24.50%    100.00%
system.ruby.L1Cache_Controller.I_L.Persistent_GETS::total         2976                      
system.ruby.L2Cache_Controller.L1_GETS          15150      0.00%      0.00%
system.ruby.L2Cache_Controller.L1_GETX           3540      0.00%      0.00%
system.ruby.L2Cache_Controller.L1_INV             591      0.00%      0.00%
system.ruby.L2Cache_Controller.Writeback_Shared_Data            3      0.00%      0.00%
system.ruby.L2Cache_Controller.Writeback_All_Tokens        11607      0.00%      0.00%
system.ruby.L2Cache_Controller.Persistent_GETX          175      0.00%      0.00%
system.ruby.L2Cache_Controller.Persistent_GETS          744      0.00%      0.00%
system.ruby.L2Cache_Controller.Own_Lock_or_Unlock          919      0.00%      0.00%
system.ruby.L2Cache_Controller.NP.L1_GETS        13476      0.00%      0.00%
system.ruby.L2Cache_Controller.NP.L1_GETX         3193      0.00%      0.00%
system.ruby.L2Cache_Controller.NP.L1_INV          590      0.00%      0.00%
system.ruby.L2Cache_Controller.NP.Writeback_All_Tokens        10516      0.00%      0.00%
system.ruby.L2Cache_Controller.NP.Own_Lock_or_Unlock          919      0.00%      0.00%
system.ruby.L2Cache_Controller.I.L1_GETS            1      0.00%      0.00%
system.ruby.L2Cache_Controller.I.L1_INV             1      0.00%      0.00%
system.ruby.L2Cache_Controller.I.Writeback_All_Tokens          156      0.00%      0.00%
system.ruby.L2Cache_Controller.O.L1_GETS            3      0.00%      0.00%
system.ruby.L2Cache_Controller.O.L1_GETX          136      0.00%      0.00%
system.ruby.L2Cache_Controller.O.Writeback_Shared_Data            3      0.00%      0.00%
system.ruby.L2Cache_Controller.O.Writeback_All_Tokens          935      0.00%      0.00%
system.ruby.L2Cache_Controller.M.L1_GETS         1670      0.00%      0.00%
system.ruby.L2Cache_Controller.M.L1_GETX          211      0.00%      0.00%
system.ruby.L2Cache_Controller.I_L.Persistent_GETX          175      0.00%      0.00%
system.ruby.L2Cache_Controller.I_L.Persistent_GETS          744      0.00%      0.00%

---------- End Simulation Statistics   ----------
