
---------- Begin Simulation Statistics ----------
sim_seconds                                  0.004958                       # Number of seconds simulated
sim_ticks                                  4957714000                       # Number of ticks simulated
final_tick                                 4957714000                       # Number of ticks from beginning of simulation (restored from checkpoints and never reset)
sim_freq                                 1000000000000                       # Frequency of simulated ticks
host_inst_rate                                  48753                       # Simulator instruction rate (inst/s)
host_op_rate                                    97399                       # Simulator op (including micro ops) rate (op/s)
host_tick_rate                               19189888                       # Simulator tick rate (ticks/s)
host_mem_usage                                 850392                       # Number of bytes of host memory used
host_seconds                                   258.35                       # Real time elapsed on the host
sim_insts                                    12595284                       # Number of instructions simulated
sim_ops                                      25163144                       # Number of ops (including micro ops) simulated
system.voltage_domain.voltage                       1                       # Voltage in Volts
system.clk_domain.clock                          1000                       # Clock period in ticks
system.mem_ctrls.pwrStateResidencyTicks::UNDEFINED   4957714000                       # Cumulative time (in ticks) in various power states
system.mem_ctrls.bytes_read::ruby.dir_cntrl0      1191040                       # Number of bytes read from this memory
system.mem_ctrls.bytes_read::total            1191040                       # Number of bytes read from this memory
system.mem_ctrls.bytes_written::ruby.dir_cntrl0          512                       # Number of bytes written to this memory
system.mem_ctrls.bytes_written::total             512                       # Number of bytes written to this memory
system.mem_ctrls.num_reads::ruby.dir_cntrl0        18610                       # Number of read requests responded to by this memory
system.mem_ctrls.num_reads::total               18610                       # Number of read requests responded to by this memory
system.mem_ctrls.num_writes::ruby.dir_cntrl0            8                       # Number of write requests responded to by this memory
system.mem_ctrls.num_writes::total                  8                       # Number of write requests responded to by this memory
system.mem_ctrls.bw_read::ruby.dir_cntrl0    240239756                       # Total read bandwidth from this memory (bytes/s)
system.mem_ctrls.bw_read::total             240239756                       # Total read bandwidth from this memory (bytes/s)
system.mem_ctrls.bw_write::ruby.dir_cntrl0       103273                       # Write bandwidth from this memory (bytes/s)
system.mem_ctrls.bw_write::total               103273                       # Write bandwidth from this memory (bytes/s)
system.mem_ctrls.bw_total::ruby.dir_cntrl0    240343029                       # Total bandwidth to/from this memory (bytes/s)
system.mem_ctrls.bw_total::total            240343029                       # Total bandwidth to/from this memory (bytes/s)
system.mem_ctrls.readReqs                       18610                       # Number of read requests accepted
system.mem_ctrls.avgNetLat                       0.00                       # Average network latency to DRAM controller
system.mem_ctrls.writeReqs                          8                       # Number of write requests accepted
system.mem_ctrls.readBursts                     18610                       # Number of DRAM read bursts, including those serviced by the write queue
system.mem_ctrls.writeBursts                        8                       # Number of DRAM write bursts, including those merged in the write queue
system.mem_ctrls.bytesReadDRAM                1191040                       # Total number of bytes read from DRAM
system.mem_ctrls.bytesReadWrQ                       0                       # Total number of bytes read from write queue
system.mem_ctrls.bytesWritten                       0                       # Total number of bytes written to DRAM
system.mem_ctrls.bytesReadSys                 1191040                       # Total read bytes from the system interface side
system.mem_ctrls.bytesWrittenSys                  512                       # Total written bytes from the system interface side
system.mem_ctrls.servicedByWrQ                      0                       # Number of DRAM read bursts serviced by the write queue
system.mem_ctrls.mergedWrBursts                     0                       # Number of DRAM write bursts merged with an existing one
system.mem_ctrls.neitherReadNorWriteReqs            0                       # Number of requests that are neither read nor write
system.mem_ctrls.perBankRdBursts::0              1189                       # Per bank write bursts
system.mem_ctrls.perBankRdBursts::1              1168                       # Per bank write bursts
system.mem_ctrls.perBankRdBursts::2              1077                       # Per bank write bursts
system.mem_ctrls.perBankRdBursts::3               911                       # Per bank write bursts
system.mem_ctrls.perBankRdBursts::4               870                       # Per bank write bursts
system.mem_ctrls.perBankRdBursts::5              1147                       # Per bank write bursts
system.mem_ctrls.perBankRdBursts::6              1311                       # Per bank write bursts
system.mem_ctrls.perBankRdBursts::7              1388                       # Per bank write bursts
system.mem_ctrls.perBankRdBursts::8              1393                       # Per bank write bursts
system.mem_ctrls.perBankRdBursts::9              1335                       # Per bank write bursts
system.mem_ctrls.perBankRdBursts::10             1266                       # Per bank write bursts
system.mem_ctrls.perBankRdBursts::11             1297                       # Per bank write bursts
system.mem_ctrls.perBankRdBursts::12             1004                       # Per bank write bursts
system.mem_ctrls.perBankRdBursts::13             1025                       # Per bank write bursts
system.mem_ctrls.perBankRdBursts::14             1097                       # Per bank write bursts
system.mem_ctrls.perBankRdBursts::15             1132                       # Per bank write bursts
system.mem_ctrls.perBankWrBursts::0                 0                       # Per bank write bursts
system.mem_ctrls.perBankWrBursts::1                 0                       # Per bank write bursts
system.mem_ctrls.perBankWrBursts::2                 0                       # Per bank write bursts
system.mem_ctrls.perBankWrBursts::3                 0                       # Per bank write bursts
system.mem_ctrls.perBankWrBursts::4                 0                       # Per bank write bursts
system.mem_ctrls.perBankWrBursts::5                 0                       # Per bank write bursts
system.mem_ctrls.perBankWrBursts::6                 0                       # Per bank write bursts
system.mem_ctrls.perBankWrBursts::7                 0                       # Per bank write bursts
system.mem_ctrls.perBankWrBursts::8                 0                       # Per bank write bursts
system.mem_ctrls.perBankWrBursts::9                 0                       # Per bank write bursts
system.mem_ctrls.perBankWrBursts::10                0                       # Per bank write bursts
system.mem_ctrls.perBankWrBursts::11                0                       # Per bank write bursts
system.mem_ctrls.perBankWrBursts::12                0                       # Per bank write bursts
system.mem_ctrls.perBankWrBursts::13                0                       # Per bank write bursts
system.mem_ctrls.perBankWrBursts::14                0                       # Per bank write bursts
system.mem_ctrls.perBankWrBursts::15                0                       # Per bank write bursts
system.mem_ctrls.numRdRetry                         0                       # Number of times read queue was full causing retry
system.mem_ctrls.numWrRetry                         0                       # Number of times write queue was full causing retry
system.mem_ctrls.totGap                    4957648500                       # Total gap between requests
system.mem_ctrls.readPktSize::0                     0                       # Read request sizes (log2)
system.mem_ctrls.readPktSize::1                     0                       # Read request sizes (log2)
system.mem_ctrls.readPktSize::2                     0                       # Read request sizes (log2)
system.mem_ctrls.readPktSize::3                     0                       # Read request sizes (log2)
system.mem_ctrls.readPktSize::4                     0                       # Read request sizes (log2)
system.mem_ctrls.readPktSize::5                     0                       # Read request sizes (log2)
system.mem_ctrls.readPktSize::6                 18610                       # Read request sizes (log2)
system.mem_ctrls.writePktSize::0                    0                       # Write request sizes (log2)
system.mem_ctrls.writePktSize::1                    0                       # Write request sizes (log2)
system.mem_ctrls.writePktSize::2                    0                       # Write request sizes (log2)
system.mem_ctrls.writePktSize::3                    0                       # Write request sizes (log2)
system.mem_ctrls.writePktSize::4                    0                       # Write request sizes (log2)
system.mem_ctrls.writePktSize::5                    0                       # Write request sizes (log2)
system.mem_ctrls.writePktSize::6                    8                       # Write request sizes (log2)
system.mem_ctrls.rdQLenPdf::0                    6125                       # What read queue length does an incoming req see
system.mem_ctrls.rdQLenPdf::1                    2772                       # What read queue length does an incoming req see
system.mem_ctrls.rdQLenPdf::2                    2518                       # What read queue length does an incoming req see
system.mem_ctrls.rdQLenPdf::3                    1865                       # What read queue length does an incoming req see
system.mem_ctrls.rdQLenPdf::4                    1349                       # What read queue length does an incoming req see
system.mem_ctrls.rdQLenPdf::5                    1027                       # What read queue length does an incoming req see
system.mem_ctrls.rdQLenPdf::6                     893                       # What read queue length does an incoming req see
system.mem_ctrls.rdQLenPdf::7                     745                       # What read queue length does an incoming req see
system.mem_ctrls.rdQLenPdf::8                     521                       # What read queue length does an incoming req see
system.mem_ctrls.rdQLenPdf::9                     339                       # What read queue length does an incoming req see
system.mem_ctrls.rdQLenPdf::10                    227                       # What read queue length does an incoming req see
system.mem_ctrls.rdQLenPdf::11                    128                       # What read queue length does an incoming req see
system.mem_ctrls.rdQLenPdf::12                     60                       # What read queue length does an incoming req see
system.mem_ctrls.rdQLenPdf::13                     25                       # What read queue length does an incoming req see
system.mem_ctrls.rdQLenPdf::14                     12                       # What read queue length does an incoming req see
system.mem_ctrls.rdQLenPdf::15                      4                       # What read queue length does an incoming req see
system.mem_ctrls.rdQLenPdf::16                      0                       # What read queue length does an incoming req see
system.mem_ctrls.rdQLenPdf::17                      0                       # What read queue length does an incoming req see
system.mem_ctrls.rdQLenPdf::18                      0                       # What read queue length does an incoming req see
system.mem_ctrls.rdQLenPdf::19                      0                       # What read queue length does an incoming req see
system.mem_ctrls.rdQLenPdf::20                      0                       # What read queue length does an incoming req see
system.mem_ctrls.rdQLenPdf::21                      0                       # What read queue length does an incoming req see
system.mem_ctrls.rdQLenPdf::22                      0                       # What read queue length does an incoming req see
system.mem_ctrls.rdQLenPdf::23                      0                       # What read queue length does an incoming req see
system.mem_ctrls.rdQLenPdf::24                      0                       # What read queue length does an incoming req see
system.mem_ctrls.rdQLenPdf::25                      0                       # What read queue length does an incoming req see
system.mem_ctrls.rdQLenPdf::26                      0                       # What read queue length does an incoming req see
system.mem_ctrls.rdQLenPdf::27                      0                       # What read queue length does an incoming req see
system.mem_ctrls.rdQLenPdf::28                      0                       # What read queue length does an incoming req see
system.mem_ctrls.rdQLenPdf::29                      0                       # What read queue length does an incoming req see
system.mem_ctrls.rdQLenPdf::30                      0                       # What read queue length does an incoming req see
system.mem_ctrls.rdQLenPdf::31                      0                       # What read queue length does an incoming req see
system.mem_ctrls.wrQLenPdf::0                       1                       # What write queue length does an incoming req see
system.mem_ctrls.wrQLenPdf::1                       1                       # What write queue length does an incoming req see
system.mem_ctrls.wrQLenPdf::2                       1                       # What write queue length does an incoming req see
system.mem_ctrls.wrQLenPdf::3                       1                       # What write queue length does an incoming req see
system.mem_ctrls.wrQLenPdf::4                       1                       # What write queue length does an incoming req see
system.mem_ctrls.wrQLenPdf::5                       1                       # What write queue length does an incoming req see
system.mem_ctrls.wrQLenPdf::6                       1                       # What write queue length does an incoming req see
system.mem_ctrls.wrQLenPdf::7                       1                       # What write queue length does an incoming req see
system.mem_ctrls.wrQLenPdf::8                       0                       # What write queue length does an incoming req see
system.mem_ctrls.wrQLenPdf::9                       0                       # What write queue length does an incoming req see
system.mem_ctrls.wrQLenPdf::10                      0                       # What write queue length does an incoming req see
system.mem_ctrls.wrQLenPdf::11                      0                       # What write queue length does an incoming req see
system.mem_ctrls.wrQLenPdf::12                      0                       # What write queue length does an incoming req see
system.mem_ctrls.wrQLenPdf::13                      0                       # What write queue length does an incoming req see
system.mem_ctrls.wrQLenPdf::14                      0                       # What write queue length does an incoming req see
system.mem_ctrls.wrQLenPdf::15                      0                       # What write queue length does an incoming req see
system.mem_ctrls.wrQLenPdf::16                      0                       # What write queue length does an incoming req see
system.mem_ctrls.wrQLenPdf::17                      0                       # What write queue length does an incoming req see
system.mem_ctrls.wrQLenPdf::18                      0                       # What write queue length does an incoming req see
system.mem_ctrls.wrQLenPdf::19                      0                       # What write queue length does an incoming req see
system.mem_ctrls.wrQLenPdf::20                      0                       # What write queue length does an incoming req see
system.mem_ctrls.wrQLenPdf::21                      0                       # What write queue length does an incoming req see
system.mem_ctrls.wrQLenPdf::22                      0                       # What write queue length does an incoming req see
system.mem_ctrls.wrQLenPdf::23                      0                       # What write queue length does an incoming req see
system.mem_ctrls.wrQLenPdf::24                      0                       # What write queue length does an incoming req see
system.mem_ctrls.wrQLenPdf::25                      0                       # What write queue length does an incoming req see
system.mem_ctrls.wrQLenPdf::26                      0                       # What write queue length does an incoming req see
system.mem_ctrls.wrQLenPdf::27                      0                       # What write queue length does an incoming req see
system.mem_ctrls.wrQLenPdf::28                      0                       # What write queue length does an incoming req see
system.mem_ctrls.wrQLenPdf::29                      0                       # What write queue length does an incoming req see
system.mem_ctrls.wrQLenPdf::30                      0                       # What write queue length does an incoming req see
system.mem_ctrls.wrQLenPdf::31                      0                       # What write queue length does an incoming req see
system.mem_ctrls.wrQLenPdf::32                      0                       # What write queue length does an incoming req see
system.mem_ctrls.wrQLenPdf::33                      0                       # What write queue length does an incoming req see
system.mem_ctrls.wrQLenPdf::34                      0                       # What write queue length does an incoming req see
system.mem_ctrls.wrQLenPdf::35                      0                       # What write queue length does an incoming req see
system.mem_ctrls.wrQLenPdf::36                      0                       # What write queue length does an incoming req see
system.mem_ctrls.wrQLenPdf::37                      0                       # What write queue length does an incoming req see
system.mem_ctrls.wrQLenPdf::38                      0                       # What write queue length does an incoming req see
system.mem_ctrls.wrQLenPdf::39                      0                       # What write queue length does an incoming req see
system.mem_ctrls.wrQLenPdf::40                      0                       # What write queue length does an incoming req see
system.mem_ctrls.wrQLenPdf::41                      0                       # What write queue length does an incoming req see
system.mem_ctrls.wrQLenPdf::42                      0                       # What write queue length does an incoming req see
system.mem_ctrls.wrQLenPdf::43                      0                       # What write queue length does an incoming req see
system.mem_ctrls.wrQLenPdf::44                      0                       # What write queue length does an incoming req see
system.mem_ctrls.wrQLenPdf::45                      0                       # What write queue length does an incoming req see
system.mem_ctrls.wrQLenPdf::46                      0                       # What write queue length does an incoming req see
system.mem_ctrls.wrQLenPdf::47                      0                       # What write queue length does an incoming req see
system.mem_ctrls.wrQLenPdf::48                      0                       # What write queue length does an incoming req see
system.mem_ctrls.wrQLenPdf::49                      0                       # What write queue length does an incoming req see
system.mem_ctrls.wrQLenPdf::50                      0                       # What write queue length does an incoming req see
system.mem_ctrls.wrQLenPdf::51                      0                       # What write queue length does an incoming req see
system.mem_ctrls.wrQLenPdf::52                      0                       # What write queue length does an incoming req see
system.mem_ctrls.wrQLenPdf::53                      0                       # What write queue length does an incoming req see
system.mem_ctrls.wrQLenPdf::54                      0                       # What write queue length does an incoming req see
system.mem_ctrls.wrQLenPdf::55                      0                       # What write queue length does an incoming req see
system.mem_ctrls.wrQLenPdf::56                      0                       # What write queue length does an incoming req see
system.mem_ctrls.wrQLenPdf::57                      0                       # What write queue length does an incoming req see
system.mem_ctrls.wrQLenPdf::58                      0                       # What write queue length does an incoming req see
system.mem_ctrls.wrQLenPdf::59                      0                       # What write queue length does an incoming req see
system.mem_ctrls.wrQLenPdf::60                      0                       # What write queue length does an incoming req see
system.mem_ctrls.wrQLenPdf::61                      0                       # What write queue length does an incoming req see
system.mem_ctrls.wrQLenPdf::62                      0                       # What write queue length does an incoming req see
system.mem_ctrls.wrQLenPdf::63                      0                       # What write queue length does an incoming req see
system.mem_ctrls.bytesPerActivate::samples         4780                       # Bytes accessed per row activation
system.mem_ctrls.bytesPerActivate::mean    248.810042                       # Bytes accessed per row activation
system.mem_ctrls.bytesPerActivate::gmean   139.827038                       # Bytes accessed per row activation
system.mem_ctrls.bytesPerActivate::stdev   313.199191                       # Bytes accessed per row activation
system.mem_ctrls.bytesPerActivate::0-127         2440     51.05%     51.05% # Bytes accessed per row activation
system.mem_ctrls.bytesPerActivate::128-255         1089     22.78%     73.83% # Bytes accessed per row activation
system.mem_ctrls.bytesPerActivate::256-383          311      6.51%     80.33% # Bytes accessed per row activation
system.mem_ctrls.bytesPerActivate::384-511          141      2.95%     83.28% # Bytes accessed per row activation
system.mem_ctrls.bytesPerActivate::512-639          110      2.30%     85.59% # Bytes accessed per row activation
system.mem_ctrls.bytesPerActivate::640-767           63      1.32%     86.90% # Bytes accessed per row activation
system.mem_ctrls.bytesPerActivate::768-895           60      1.26%     88.16% # Bytes accessed per row activation
system.mem_ctrls.bytesPerActivate::896-1023           67      1.40%     89.56% # Bytes accessed per row activation
system.mem_ctrls.bytesPerActivate::1024-1151          499     10.44%    100.00% # Bytes accessed per row activation
system.mem_ctrls.bytesPerActivate::total         4780                       # Bytes accessed per row activation
system.mem_ctrls.totQLat                    480739293                       # Total ticks spent queuing
system.mem_ctrls.totMemAccLat               829676793                       # Total ticks spent from burst creation until serviced by the DRAM
system.mem_ctrls.totBusLat                   93050000                       # Total ticks spent in databus transfers
system.mem_ctrls.avgQLat                     25832.31                       # Average queueing delay per DRAM burst
system.mem_ctrls.avgBusLat                    5000.00                       # Average bus latency per DRAM burst
system.mem_ctrls.avgMemAccLat                44582.31                       # Average memory access latency per DRAM burst
system.mem_ctrls.avgRdBW                       240.24                       # Average DRAM read bandwidth in MiByte/s
system.mem_ctrls.avgWrBW                         0.00                       # Average achieved write bandwidth in MiByte/s
system.mem_ctrls.avgRdBWSys                    240.24                       # Average system read bandwidth in MiByte/s
system.mem_ctrls.avgWrBWSys                      0.10                       # Average system write bandwidth in MiByte/s
system.mem_ctrls.peakBW                      12800.00                       # Theoretical peak bandwidth in MiByte/s
system.mem_ctrls.busUtil                         1.88                       # Data bus utilization in percentage
system.mem_ctrls.busUtilRead                     1.88                       # Data bus utilization in percentage for reads
system.mem_ctrls.busUtilWrite                    0.00                       # Data bus utilization in percentage for writes
system.mem_ctrls.avgRdQLen                       1.15                       # Average read queue length when enqueuing
system.mem_ctrls.avgWrQLen                       2.92                       # Average write queue length when enqueuing
system.mem_ctrls.readRowHits                    13820                       # Number of row buffer hits during reads
system.mem_ctrls.writeRowHits                       0                       # Number of row buffer hits during writes
system.mem_ctrls.readRowHitRate                 74.26                       # Row buffer hit rate for reads
system.mem_ctrls.writeRowHitRate                 0.00                       # Row buffer hit rate for writes
system.mem_ctrls.avgGap                     266282.55                       # Average gap between requests
system.mem_ctrls.pageHitRate                    74.23                       # Row buffer hit rate, read and write combined
system.mem_ctrls_0.actEnergy                 16543380                       # Energy for activate commands per rank (pJ)
system.mem_ctrls_0.preEnergy                  8777835                       # Energy for precharge commands per rank (pJ)
system.mem_ctrls_0.readEnergy                64695540                       # Energy for read commands per rank (pJ)
system.mem_ctrls_0.writeEnergy                      0                       # Energy for write commands per rank (pJ)
system.mem_ctrls_0.refreshEnergy         46712640.000000                       # Energy for refresh commands per rank (pJ)
system.mem_ctrls_0.actBackEnergy            103766790                       # Energy for active background per rank (pJ)
system.mem_ctrls_0.preBackEnergy              2246400                       # Energy for precharge background per rank (pJ)
system.mem_ctrls_0.actPowerDownEnergy       115386240                       # Energy for active power-down per rank (pJ)
system.mem_ctrls_0.prePowerDownEnergy        22975680                       # Energy for precharge power-down per rank (pJ)
system.mem_ctrls_0.selfRefreshEnergy       1062609780                       # Energy for self refresh per rank (pJ)
system.mem_ctrls_0.totalEnergy             1443714285                       # Total energy per rank (pJ)
system.mem_ctrls_0.averagePower            291.205583                       # Core power per rank (mW)
system.mem_ctrls_0.totalIdleTime           4724174527                       # Total Idle time Per DRAM Rank
system.mem_ctrls_0.memoryStateTime::IDLE      2662000                       # Time in different power states
system.mem_ctrls_0.memoryStateTime::REF      19814000                       # Time in different power states
system.mem_ctrls_0.memoryStateTime::SREF   4411433750                       # Time in different power states
system.mem_ctrls_0.memoryStateTime::PRE_PDN     59832500                       # Time in different power states
system.mem_ctrls_0.memoryStateTime::ACT     210914223                       # Time in different power states
system.mem_ctrls_0.memoryStateTime::ACT_PDN    253057527                       # Time in different power states
system.mem_ctrls_1.actEnergy                 17657220                       # Energy for activate commands per rank (pJ)
system.mem_ctrls_1.preEnergy                  9362265                       # Energy for precharge commands per rank (pJ)
system.mem_ctrls_1.readEnergy                68179860                       # Energy for read commands per rank (pJ)
system.mem_ctrls_1.writeEnergy                      0                       # Energy for write commands per rank (pJ)
system.mem_ctrls_1.refreshEnergy         43024800.000000                       # Energy for refresh commands per rank (pJ)
system.mem_ctrls_1.actBackEnergy            103823790                       # Energy for active background per rank (pJ)
system.mem_ctrls_1.preBackEnergy              1981440                       # Energy for precharge background per rank (pJ)
system.mem_ctrls_1.actPowerDownEnergy       108884250                       # Energy for active power-down per rank (pJ)
system.mem_ctrls_1.prePowerDownEnergy        16216800                       # Energy for precharge power-down per rank (pJ)
system.mem_ctrls_1.selfRefreshEnergy       1069287300                       # Energy for self refresh per rank (pJ)
system.mem_ctrls_1.totalEnergy             1438417725                       # Total energy per rank (pJ)
system.mem_ctrls_1.averagePower            290.137236                       # Core power per rank (mW)
system.mem_ctrls_1.totalIdleTime           4724846265                       # Total Idle time Per DRAM Rank
system.mem_ctrls_1.memoryStateTime::IDLE      2001251                       # Time in different power states
system.mem_ctrls_1.memoryStateTime::REF      18236000                       # Time in different power states
system.mem_ctrls_1.memoryStateTime::SREF   4443858250                       # Time in different power states
system.mem_ctrls_1.memoryStateTime::PRE_PDN     42232750                       # Time in different power states
system.mem_ctrls_1.memoryStateTime::ACT     212600234                       # Time in different power states
system.mem_ctrls_1.memoryStateTime::ACT_PDN    238785515                       # Time in different power states
system.pwrStateResidencyTicks::UNDEFINED   4957714000                       # Cumulative time (in ticks) in various power states
system.cpu0.branchPred.lookups                 841228                       # Number of BP lookups
system.cpu0.branchPred.condPredicted           841228                       # Number of conditional branches predicted
system.cpu0.branchPred.condIncorrect             8320                       # Number of conditional branches incorrect
system.cpu0.branchPred.BTBLookups              773608                       # Number of BTB lookups
system.cpu0.branchPred.BTBHits                      0                       # Number of BTB hits
system.cpu0.branchPred.BTBCorrect                   0                       # Number of correct BTB predictions (this stat may not work properly.
system.cpu0.branchPred.BTBHitPct             0.000000                       # BTB Hit Percentage
system.cpu0.branchPred.usedRAS                  47163                       # Number of times the RAS was used to get a target.
system.cpu0.branchPred.RASInCorrect               451                       # Number of incorrect RAS predictions.
system.cpu0.branchPred.indirectLookups         773608                       # Number of indirect predictor lookups.
system.cpu0.branchPred.indirectHits            425319                       # Number of indirect target hits.
system.cpu0.branchPred.indirectMisses          348289                       # Number of indirect misses.
system.cpu0.branchPredindirectMispredicted         4235                       # Number of mispredicted indirect branches.
system.cpu_voltage_domain.voltage                   1                       # Voltage in Volts
system.cpu0.clk_domain.clock                      500                       # Clock period in ticks
system.cpu0.dtb.walker.pwrStateResidencyTicks::UNDEFINED   4957714000                       # Cumulative time (in ticks) in various power states
system.cpu0.apic_clk_domain.clock                8000                       # Clock period in ticks
system.cpu0.interrupts.pwrStateResidencyTicks::UNDEFINED   4957714000                       # Cumulative time (in ticks) in various power states
system.cpu0.itb.walker.pwrStateResidencyTicks::UNDEFINED   4957714000                       # Cumulative time (in ticks) in various power states
system.cpu0.workload.num_syscalls               44742                       # Number of system calls
system.cpu0.pwrStateResidencyTicks::ON     4957714000                       # Cumulative time (in ticks) in various power states
system.cpu0.numCycles                         5322729                       # number of cpu cycles simulated
system.cpu0.numWorkItemsStarted                     0                       # number of work items this cpu started
system.cpu0.numWorkItemsCompleted                   0                       # number of work items this cpu completed
system.cpu0.fetch.icacheStallCycles            354418                       # Number of cycles fetch is stalled on an Icache miss
system.cpu0.fetch.Insts                       2556924                       # Number of instructions fetch has processed
system.cpu0.fetch.Branches                     841228                       # Number of branches that fetch encountered
system.cpu0.fetch.predictedBranches            472482                       # Number of branches that fetch has predicted taken
system.cpu0.fetch.Cycles                      4863114                       # Number of cycles fetch has run and was not squashing or blocked
system.cpu0.fetch.SquashCycles                  16797                       # Number of cycles fetch has spent squashing
system.cpu0.fetch.MiscStallCycles               10224                       # Number of cycles fetch has spent waiting on interrupts, or bad addresses, or out of MSHRs
system.cpu0.fetch.NoActiveThreadStallCycles           10                       # Number of stall cycles due to no active thread to fetch from
system.cpu0.fetch.PendingTrapStallCycles          451                       # Number of stall cycles due to pending traps
system.cpu0.fetch.PendingQuiesceStallCycles           14                       # Number of stall cycles due to pending quiesce instructions
system.cpu0.fetch.IcacheWaitRetryStallCycles         6496                       # Number of stall cycles due to full MSHR
system.cpu0.fetch.CacheLines                   324569                       # Number of cache lines fetched
system.cpu0.fetch.IcacheSquashes                 2676                       # Number of outstanding Icache misses that were squashed
system.cpu0.fetch.rateDist::samples           5243125                       # Number of instructions fetched each cycle (Total)
system.cpu0.fetch.rateDist::mean             0.963408                       # Number of instructions fetched each cycle (Total)
system.cpu0.fetch.rateDist::stdev            2.349030                       # Number of instructions fetched each cycle (Total)
system.cpu0.fetch.rateDist::underflows              0      0.00%      0.00% # Number of instructions fetched each cycle (Total)
system.cpu0.fetch.rateDist::0                 4386875     83.67%     83.67% # Number of instructions fetched each cycle (Total)
system.cpu0.fetch.rateDist::1                    8642      0.16%     83.83% # Number of instructions fetched each cycle (Total)
system.cpu0.fetch.rateDist::2                   26037      0.50%     84.33% # Number of instructions fetched each cycle (Total)
system.cpu0.fetch.rateDist::3                  102158      1.95%     86.28% # Number of instructions fetched each cycle (Total)
system.cpu0.fetch.rateDist::4                  224153      4.28%     90.55% # Number of instructions fetched each cycle (Total)
system.cpu0.fetch.rateDist::5                    7378      0.14%     90.69% # Number of instructions fetched each cycle (Total)
system.cpu0.fetch.rateDist::6                   28648      0.55%     91.24% # Number of instructions fetched each cycle (Total)
system.cpu0.fetch.rateDist::7                   95182      1.82%     93.06% # Number of instructions fetched each cycle (Total)
system.cpu0.fetch.rateDist::8                  364052      6.94%    100.00% # Number of instructions fetched each cycle (Total)
system.cpu0.fetch.rateDist::overflows               0      0.00%    100.00% # Number of instructions fetched each cycle (Total)
system.cpu0.fetch.rateDist::min_value               0                       # Number of instructions fetched each cycle (Total)
system.cpu0.fetch.rateDist::max_value               8                       # Number of instructions fetched each cycle (Total)
system.cpu0.fetch.rateDist::total             5243125                       # Number of instructions fetched each cycle (Total)
system.cpu0.fetch.branchRate                 0.158044                       # Number of branch fetches per cycle
system.cpu0.fetch.rate                       0.480378                       # Number of inst fetches per cycle
system.cpu0.decode.IdleCycles                  227001                       # Number of cycles decode is idle
system.cpu0.decode.BlockedCycles              4359889                       # Number of cycles decode is blocked
system.cpu0.decode.RunCycles                   256906                       # Number of cycles decode is running
system.cpu0.decode.UnblockCycles               390921                       # Number of cycles decode is unblocking
system.cpu0.decode.SquashCycles                  8398                       # Number of cycles decode is squashing
system.cpu0.decode.DecodedInsts               4972694                       # Number of instructions handled by decode
system.cpu0.rename.SquashCycles                  8398                       # Number of cycles rename is squashing
system.cpu0.rename.IdleCycles                  313609                       # Number of cycles rename is idle
system.cpu0.rename.BlockCycles                 751595                       # Number of cycles rename is blocking
system.cpu0.rename.serializeStallCycles       3027435                       # count of cycles rename stalled for serializing inst
system.cpu0.rename.RunCycles                   404788                       # Number of cycles rename is running
system.cpu0.rename.UnblockCycles               737290                       # Number of cycles rename is unblocking
system.cpu0.rename.RenamedInsts               4932098                       # Number of instructions processed by rename
system.cpu0.rename.ROBFullEvents               365694                       # Number of times rename has blocked due to ROB full
system.cpu0.rename.IQFullEvents                 13605                       # Number of times rename has blocked due to IQ full
system.cpu0.rename.LQFullEvents                144452                       # Number of times rename has blocked due to LQ full
system.cpu0.rename.SQFullEvents                 62080                       # Number of times rename has blocked due to SQ full
system.cpu0.rename.RenamedOperands            5446681                       # Number of destination operands rename has renamed
system.cpu0.rename.RenameLookups             11282234                       # Number of register rename lookups that rename has made
system.cpu0.rename.int_rename_lookups         5707468                       # Number of integer rename lookups
system.cpu0.rename.fp_rename_lookups            18533                       # Number of floating rename lookups
system.cpu0.rename.CommittedMaps              4974580                       # Number of HB maps that are committed
system.cpu0.rename.UndoneMaps                  472101                       # Number of HB maps that are undone due to squashing
system.cpu0.rename.serializingInsts             44777                       # count of serializing insts renamed
system.cpu0.rename.tempSerializingInsts         44781                       # count of temporary serializing insts renamed
system.cpu0.rename.skidInsts                  2433920                       # count of insts added to the skid buffer
system.cpu0.memDep0.insertedLoads              709006                       # Number of loads inserted to the mem dependence unit.
system.cpu0.memDep0.insertedStores              74088                       # Number of stores inserted to the mem dependence unit.
system.cpu0.memDep0.conflictingLoads             7268                       # Number of conflicting loads.
system.cpu0.memDep0.conflictingStores             889                       # Number of conflicting stores.
system.cpu0.iq.iqInstsAdded                   4817765                       # Number of instructions added to the IQ (excludes non-spec)
system.cpu0.iq.iqNonSpecInstsAdded              44833                       # Number of non-speculative instructions added to the IQ
system.cpu0.iq.iqInstsIssued                  4869956                       # Number of instructions issued
system.cpu0.iq.iqSquashedInstsIssued             5977                       # Number of squashed instructions issued
system.cpu0.iq.iqSquashedInstsExamined         313886                       # Number of squashed instructions iterated over during squash; mainly for profiling
system.cpu0.iq.iqSquashedOperandsExamined       463906                       # Number of squashed operands that are examined and possibly removed from graph
system.cpu0.iq.iqSquashedNonSpecRemoved            91                       # Number of squashed non-spec instructions that were removed
system.cpu0.iq.issued_per_cycle::samples      5243125                       # Number of insts issued each cycle
system.cpu0.iq.issued_per_cycle::mean        0.928827                       # Number of insts issued each cycle
system.cpu0.iq.issued_per_cycle::stdev       1.671555                       # Number of insts issued each cycle
system.cpu0.iq.issued_per_cycle::underflows            0      0.00%      0.00% # Number of insts issued each cycle
system.cpu0.iq.issued_per_cycle::0            3505957     66.87%     66.87% # Number of insts issued each cycle
system.cpu0.iq.issued_per_cycle::1             556751     10.62%     77.49% # Number of insts issued each cycle
system.cpu0.iq.issued_per_cycle::2             327216      6.24%     83.73% # Number of insts issued each cycle
system.cpu0.iq.issued_per_cycle::3             347203      6.62%     90.35% # Number of insts issued each cycle
system.cpu0.iq.issued_per_cycle::4             195171      3.72%     94.07% # Number of insts issued each cycle
system.cpu0.iq.issued_per_cycle::5             108427      2.07%     96.14% # Number of insts issued each cycle
system.cpu0.iq.issued_per_cycle::6             134259      2.56%     98.70% # Number of insts issued each cycle
system.cpu0.iq.issued_per_cycle::7              56337      1.07%     99.77% # Number of insts issued each cycle
system.cpu0.iq.issued_per_cycle::8              11804      0.23%    100.00% # Number of insts issued each cycle
system.cpu0.iq.issued_per_cycle::overflows            0      0.00%    100.00% # Number of insts issued each cycle
system.cpu0.iq.issued_per_cycle::min_value            0                       # Number of insts issued each cycle
system.cpu0.iq.issued_per_cycle::max_value            8                       # Number of insts issued each cycle
system.cpu0.iq.issued_per_cycle::total        5243125                       # Number of insts issued each cycle
system.cpu0.iq.fu_full::No_OpClass                  0      0.00%      0.00% # attempts to use FU when none available
system.cpu0.iq.fu_full::IntAlu                  27503     61.89%     61.89% # attempts to use FU when none available
system.cpu0.iq.fu_full::IntMult                     0      0.00%     61.89% # attempts to use FU when none available
system.cpu0.iq.fu_full::IntDiv                      0      0.00%     61.89% # attempts to use FU when none available
system.cpu0.iq.fu_full::FloatAdd                   46      0.10%     62.00% # attempts to use FU when none available
system.cpu0.iq.fu_full::FloatCmp                    0      0.00%     62.00% # attempts to use FU when none available
system.cpu0.iq.fu_full::FloatCvt                    0      0.00%     62.00% # attempts to use FU when none available
system.cpu0.iq.fu_full::FloatMult                   0      0.00%     62.00% # attempts to use FU when none available
system.cpu0.iq.fu_full::FloatMultAcc                0      0.00%     62.00% # attempts to use FU when none available
system.cpu0.iq.fu_full::FloatDiv                    0      0.00%     62.00% # attempts to use FU when none available
system.cpu0.iq.fu_full::FloatMisc                   0      0.00%     62.00% # attempts to use FU when none available
system.cpu0.iq.fu_full::FloatSqrt                   0      0.00%     62.00% # attempts to use FU when none available
system.cpu0.iq.fu_full::SimdAdd                     0      0.00%     62.00% # attempts to use FU when none available
system.cpu0.iq.fu_full::SimdAddAcc                  0      0.00%     62.00% # attempts to use FU when none available
system.cpu0.iq.fu_full::SimdAlu                     0      0.00%     62.00% # attempts to use FU when none available
system.cpu0.iq.fu_full::SimdCmp                     0      0.00%     62.00% # attempts to use FU when none available
system.cpu0.iq.fu_full::SimdCvt                     0      0.00%     62.00% # attempts to use FU when none available
system.cpu0.iq.fu_full::SimdMisc                    0      0.00%     62.00% # attempts to use FU when none available
system.cpu0.iq.fu_full::SimdMult                    0      0.00%     62.00% # attempts to use FU when none available
system.cpu0.iq.fu_full::SimdMultAcc                 0      0.00%     62.00% # attempts to use FU when none available
system.cpu0.iq.fu_full::SimdShift                   0      0.00%     62.00% # attempts to use FU when none available
system.cpu0.iq.fu_full::SimdShiftAcc                0      0.00%     62.00% # attempts to use FU when none available
system.cpu0.iq.fu_full::SimdSqrt                    0      0.00%     62.00% # attempts to use FU when none available
system.cpu0.iq.fu_full::SimdFloatAdd                0      0.00%     62.00% # attempts to use FU when none available
system.cpu0.iq.fu_full::SimdFloatAlu                0      0.00%     62.00% # attempts to use FU when none available
system.cpu0.iq.fu_full::SimdFloatCmp                0      0.00%     62.00% # attempts to use FU when none available
system.cpu0.iq.fu_full::SimdFloatCvt                0      0.00%     62.00% # attempts to use FU when none available
system.cpu0.iq.fu_full::SimdFloatDiv                0      0.00%     62.00% # attempts to use FU when none available
system.cpu0.iq.fu_full::SimdFloatMisc               0      0.00%     62.00% # attempts to use FU when none available
system.cpu0.iq.fu_full::SimdFloatMult               0      0.00%     62.00% # attempts to use FU when none available
system.cpu0.iq.fu_full::SimdFloatMultAcc            0      0.00%     62.00% # attempts to use FU when none available
system.cpu0.iq.fu_full::SimdFloatSqrt               0      0.00%     62.00% # attempts to use FU when none available
system.cpu0.iq.fu_full::MemRead                 15972     35.94%     97.94% # attempts to use FU when none available
system.cpu0.iq.fu_full::MemWrite                  766      1.72%     99.66% # attempts to use FU when none available
system.cpu0.iq.fu_full::FloatMemRead               98      0.22%     99.88% # attempts to use FU when none available
system.cpu0.iq.fu_full::FloatMemWrite              52      0.12%    100.00% # attempts to use FU when none available
system.cpu0.iq.fu_full::IprAccess                   0      0.00%    100.00% # attempts to use FU when none available
system.cpu0.iq.fu_full::InstPrefetch                0      0.00%    100.00% # attempts to use FU when none available
system.cpu0.iq.FU_type_0::No_OpClass             3916      0.08%      0.08% # Type of FU issued
system.cpu0.iq.FU_type_0::IntAlu              3958765     81.29%     81.37% # Type of FU issued
system.cpu0.iq.FU_type_0::IntMult               22404      0.46%     81.83% # Type of FU issued
system.cpu0.iq.FU_type_0::IntDiv                 1208      0.02%     81.85% # Type of FU issued
system.cpu0.iq.FU_type_0::FloatAdd               4295      0.09%     81.94% # Type of FU issued
system.cpu0.iq.FU_type_0::FloatCmp                  0      0.00%     81.94% # Type of FU issued
system.cpu0.iq.FU_type_0::FloatCvt                  0      0.00%     81.94% # Type of FU issued
system.cpu0.iq.FU_type_0::FloatMult                 0      0.00%     81.94% # Type of FU issued
system.cpu0.iq.FU_type_0::FloatMultAcc              0      0.00%     81.94% # Type of FU issued
system.cpu0.iq.FU_type_0::FloatDiv                  0      0.00%     81.94% # Type of FU issued
system.cpu0.iq.FU_type_0::FloatMisc                 0      0.00%     81.94% # Type of FU issued
system.cpu0.iq.FU_type_0::FloatSqrt                 0      0.00%     81.94% # Type of FU issued
system.cpu0.iq.FU_type_0::SimdAdd                   0      0.00%     81.94% # Type of FU issued
system.cpu0.iq.FU_type_0::SimdAddAcc                0      0.00%     81.94% # Type of FU issued
system.cpu0.iq.FU_type_0::SimdAlu                   0      0.00%     81.94% # Type of FU issued
system.cpu0.iq.FU_type_0::SimdCmp                   0      0.00%     81.94% # Type of FU issued
system.cpu0.iq.FU_type_0::SimdCvt                   0      0.00%     81.94% # Type of FU issued
system.cpu0.iq.FU_type_0::SimdMisc                  0      0.00%     81.94% # Type of FU issued
system.cpu0.iq.FU_type_0::SimdMult                  0      0.00%     81.94% # Type of FU issued
system.cpu0.iq.FU_type_0::SimdMultAcc               0      0.00%     81.94% # Type of FU issued
system.cpu0.iq.FU_type_0::SimdShift                 0      0.00%     81.94% # Type of FU issued
system.cpu0.iq.FU_type_0::SimdShiftAcc              0      0.00%     81.94% # Type of FU issued
system.cpu0.iq.FU_type_0::SimdSqrt                  0      0.00%     81.94% # Type of FU issued
system.cpu0.iq.FU_type_0::SimdFloatAdd              0      0.00%     81.94% # Type of FU issued
system.cpu0.iq.FU_type_0::SimdFloatAlu              0      0.00%     81.94% # Type of FU issued
system.cpu0.iq.FU_type_0::SimdFloatCmp              0      0.00%     81.94% # Type of FU issued
system.cpu0.iq.FU_type_0::SimdFloatCvt              0      0.00%     81.94% # Type of FU issued
system.cpu0.iq.FU_type_0::SimdFloatDiv              0      0.00%     81.94% # Type of FU issued
system.cpu0.iq.FU_type_0::SimdFloatMisc             0      0.00%     81.94% # Type of FU issued
system.cpu0.iq.FU_type_0::SimdFloatMult             0      0.00%     81.94% # Type of FU issued
system.cpu0.iq.FU_type_0::SimdFloatMultAcc            0      0.00%     81.94% # Type of FU issued
system.cpu0.iq.FU_type_0::SimdFloatSqrt             0      0.00%     81.94% # Type of FU issued
system.cpu0.iq.FU_type_0::MemRead              805237     16.53%     98.48% # Type of FU issued
system.cpu0.iq.FU_type_0::MemWrite              69520      1.43%     99.91% # Type of FU issued
system.cpu0.iq.FU_type_0::FloatMemRead           4163      0.09%     99.99% # Type of FU issued
system.cpu0.iq.FU_type_0::FloatMemWrite           448      0.01%    100.00% # Type of FU issued
system.cpu0.iq.FU_type_0::IprAccess                 0      0.00%    100.00% # Type of FU issued
system.cpu0.iq.FU_type_0::InstPrefetch              0      0.00%    100.00% # Type of FU issued
system.cpu0.iq.FU_type_0::total               4869956                       # Type of FU issued
system.cpu0.iq.rate                          0.914936                       # Inst issue rate
system.cpu0.iq.fu_busy_cnt                      44437                       # FU busy when requested
system.cpu0.iq.fu_busy_rate                  0.009125                       # FU busy rate (busy events/executed inst)
system.cpu0.iq.int_inst_queue_reads          15014927                       # Number of integer instruction queue reads
system.cpu0.iq.int_inst_queue_writes          5159786                       # Number of integer instruction queue writes
system.cpu0.iq.int_inst_queue_wakeup_accesses      4722529                       # Number of integer instruction queue wakeup accesses
system.cpu0.iq.fp_inst_queue_reads              18524                       # Number of floating instruction queue reads
system.cpu0.iq.fp_inst_queue_writes             16772                       # Number of floating instruction queue writes
system.cpu0.iq.fp_inst_queue_wakeup_accesses         6266                       # Number of floating instruction queue wakeup accesses
system.cpu0.iq.int_alu_accesses               4901266                       # Number of integer alu accesses
system.cpu0.iq.fp_alu_accesses                   9211                       # Number of floating point alu accesses
system.cpu0.iew.lsq.thread0.forwLoads           16044                       # Number of loads that had data forwarded from stores
system.cpu0.iew.lsq.thread0.invAddrLoads            0                       # Number of loads ignored due to an invalid address
system.cpu0.iew.lsq.thread0.squashedLoads        43698                       # Number of loads squashed
system.cpu0.iew.lsq.thread0.ignoredResponses           25                       # Number of memory responses ignored because the instruction is squashed
system.cpu0.iew.lsq.thread0.memOrderViolation           79                       # Number of memory ordering violations
system.cpu0.iew.lsq.thread0.squashedStores         9953                       # Number of stores squashed
system.cpu0.iew.lsq.thread0.invAddrSwpfs            0                       # Number of software prefetches ignored due to an invalid address
system.cpu0.iew.lsq.thread0.blockedLoads            0                       # Number of blocked loads due to partial load-store forwarding
system.cpu0.iew.lsq.thread0.rescheduledLoads            5                       # Number of loads that were rescheduled
system.cpu0.iew.lsq.thread0.cacheBlocked       112811                       # Number of times an access to memory failed due to the cache being blocked
system.cpu0.iew.iewIdleCycles                       0                       # Number of cycles IEW is idle
system.cpu0.iew.iewSquashCycles                  8398                       # Number of cycles IEW is squashing
system.cpu0.iew.iewBlockCycles                 109546                       # Number of cycles IEW is blocking
system.cpu0.iew.iewUnblockCycles                 7320                       # Number of cycles IEW is unblocking
system.cpu0.iew.iewDispatchedInsts            4862598                       # Number of instructions dispatched to IQ
system.cpu0.iew.iewDispSquashedInsts             2172                       # Number of squashed instructions skipped by dispatch
system.cpu0.iew.iewDispLoadInsts               709006                       # Number of dispatched load instructions
system.cpu0.iew.iewDispStoreInsts               74088                       # Number of dispatched store instructions
system.cpu0.iew.iewDispNonSpecInsts             44791                       # Number of dispatched non-speculative instructions
system.cpu0.iew.iewIQFullEvents                   509                       # Number of times the IQ has become full, causing a stall
system.cpu0.iew.iewLSQFullEvents                 6451                       # Number of times the LSQ has become full, causing a stall
system.cpu0.iew.memOrderViolationEvents            79                       # Number of memory order violations
system.cpu0.iew.predictedTakenIncorrect          1970                       # Number of branches that were predicted taken incorrectly
system.cpu0.iew.predictedNotTakenIncorrect         8515                       # Number of branches that were predicted not taken incorrectly
system.cpu0.iew.branchMispredicts               10485                       # Number of branch mispredicts detected at execute
system.cpu0.iew.iewExecutedInsts              4850228                       # Number of executed instructions
system.cpu0.iew.iewExecLoadInsts               803752                       # Number of load instructions executed
system.cpu0.iew.iewExecSquashedInsts            19728                       # Number of squashed instructions skipped in execute
system.cpu0.iew.exec_swp                            0                       # number of swp insts executed
system.cpu0.iew.exec_nop                            0                       # number of nop insts executed
system.cpu0.iew.exec_refs                      872458                       # number of memory reference insts executed
system.cpu0.iew.exec_branches                  794229                       # Number of branches executed
system.cpu0.iew.exec_stores                     68706                       # Number of stores executed
system.cpu0.iew.exec_rate                    0.911230                       # Inst execution rate
system.cpu0.iew.wb_sent                       4733309                       # cumulative count of insts sent to commit
system.cpu0.iew.wb_count                      4728795                       # cumulative count of insts written-back
system.cpu0.iew.wb_producers                  3323582                       # num instructions producing a value
system.cpu0.iew.wb_consumers                  4850654                       # num instructions consuming a value
system.cpu0.iew.wb_rate                      0.888416                       # insts written-back per cycle
system.cpu0.iew.wb_fanout                    0.685182                       # average fanout of values written-back
system.cpu0.commit.commitSquashedInsts         313959                       # The number of squashed insts skipped by commit
system.cpu0.commit.commitNonSpecStalls          44742                       # The number of times commit has been forced to stall to communicate backwards
system.cpu0.commit.branchMispredicts             8340                       # The number of times a branch was mispredicted
system.cpu0.commit.committed_per_cycle::samples      5195502                       # Number of insts commited each cycle
system.cpu0.commit.committed_per_cycle::mean     0.875510                       # Number of insts commited each cycle
system.cpu0.commit.committed_per_cycle::stdev     2.075723                       # Number of insts commited each cycle
system.cpu0.commit.committed_per_cycle::underflows            0      0.00%      0.00% # Number of insts commited each cycle
system.cpu0.commit.committed_per_cycle::0      3960813     76.24%     76.24% # Number of insts commited each cycle
system.cpu0.commit.committed_per_cycle::1       421717      8.12%     84.35% # Number of insts commited each cycle
system.cpu0.commit.committed_per_cycle::2        80236      1.54%     85.90% # Number of insts commited each cycle
system.cpu0.commit.committed_per_cycle::3       319561      6.15%     92.05% # Number of insts commited each cycle
system.cpu0.commit.committed_per_cycle::4        57368      1.10%     93.15% # Number of insts commited each cycle
system.cpu0.commit.committed_per_cycle::5         5506      0.11%     93.26% # Number of insts commited each cycle
system.cpu0.commit.committed_per_cycle::6        23972      0.46%     93.72% # Number of insts commited each cycle
system.cpu0.commit.committed_per_cycle::7         3626      0.07%     93.79% # Number of insts commited each cycle
system.cpu0.commit.committed_per_cycle::8       322703      6.21%    100.00% # Number of insts commited each cycle
system.cpu0.commit.committed_per_cycle::overflows            0      0.00%    100.00% # Number of insts commited each cycle
system.cpu0.commit.committed_per_cycle::min_value            0                       # Number of insts commited each cycle
system.cpu0.commit.committed_per_cycle::max_value            8                       # Number of insts commited each cycle
system.cpu0.commit.committed_per_cycle::total      5195502                       # Number of insts commited each cycle
system.cpu0.commit.committedInsts             2290426                       # Number of instructions committed
system.cpu0.commit.committedOps               4548712                       # Number of ops (including micro ops) committed
system.cpu0.commit.swp_count                        0                       # Number of s/w prefetches committed
system.cpu0.commit.refs                        729443                       # Number of memory references committed
system.cpu0.commit.loads                       665308                       # Number of loads committed
system.cpu0.commit.membars                          0                       # Number of memory barriers committed
system.cpu0.commit.branches                    781552                       # Number of branches committed
system.cpu0.commit.fp_insts                      3676                       # Number of committed floating point instructions.
system.cpu0.commit.int_insts                  4545268                       # Number of committed integer instructions.
system.cpu0.commit.function_calls               45409                       # Number of function calls committed.
system.cpu0.commit.op_class_0::No_OpClass         1334      0.03%      0.03% # Class of committed instruction
system.cpu0.commit.op_class_0::IntAlu         3792013     83.36%     83.39% # Class of committed instruction
system.cpu0.commit.op_class_0::IntMult          22380      0.49%     83.89% # Class of committed instruction
system.cpu0.commit.op_class_0::IntDiv            1179      0.03%     83.91% # Class of committed instruction
system.cpu0.commit.op_class_0::FloatAdd          2363      0.05%     83.96% # Class of committed instruction
system.cpu0.commit.op_class_0::FloatCmp             0      0.00%     83.96% # Class of committed instruction
system.cpu0.commit.op_class_0::FloatCvt             0      0.00%     83.96% # Class of committed instruction
system.cpu0.commit.op_class_0::FloatMult            0      0.00%     83.96% # Class of committed instruction
system.cpu0.commit.op_class_0::FloatMultAcc            0      0.00%     83.96% # Class of committed instruction
system.cpu0.commit.op_class_0::FloatDiv             0      0.00%     83.96% # Class of committed instruction
system.cpu0.commit.op_class_0::FloatMisc            0      0.00%     83.96% # Class of committed instruction
system.cpu0.commit.op_class_0::FloatSqrt            0      0.00%     83.96% # Class of committed instruction
system.cpu0.commit.op_class_0::SimdAdd              0      0.00%     83.96% # Class of committed instruction
system.cpu0.commit.op_class_0::SimdAddAcc            0      0.00%     83.96% # Class of committed instruction
system.cpu0.commit.op_class_0::SimdAlu              0      0.00%     83.96% # Class of committed instruction
system.cpu0.commit.op_class_0::SimdCmp              0      0.00%     83.96% # Class of committed instruction
system.cpu0.commit.op_class_0::SimdCvt              0      0.00%     83.96% # Class of committed instruction
system.cpu0.commit.op_class_0::SimdMisc             0      0.00%     83.96% # Class of committed instruction
system.cpu0.commit.op_class_0::SimdMult             0      0.00%     83.96% # Class of committed instruction
system.cpu0.commit.op_class_0::SimdMultAcc            0      0.00%     83.96% # Class of committed instruction
system.cpu0.commit.op_class_0::SimdShift            0      0.00%     83.96% # Class of committed instruction
system.cpu0.commit.op_class_0::SimdShiftAcc            0      0.00%     83.96% # Class of committed instruction
system.cpu0.commit.op_class_0::SimdSqrt             0      0.00%     83.96% # Class of committed instruction
system.cpu0.commit.op_class_0::SimdFloatAdd            0      0.00%     83.96% # Class of committed instruction
system.cpu0.commit.op_class_0::SimdFloatAlu            0      0.00%     83.96% # Class of committed instruction
system.cpu0.commit.op_class_0::SimdFloatCmp            0      0.00%     83.96% # Class of committed instruction
system.cpu0.commit.op_class_0::SimdFloatCvt            0      0.00%     83.96% # Class of committed instruction
system.cpu0.commit.op_class_0::SimdFloatDiv            0      0.00%     83.96% # Class of committed instruction
system.cpu0.commit.op_class_0::SimdFloatMisc            0      0.00%     83.96% # Class of committed instruction
system.cpu0.commit.op_class_0::SimdFloatMult            0      0.00%     83.96% # Class of committed instruction
system.cpu0.commit.op_class_0::SimdFloatMultAcc            0      0.00%     83.96% # Class of committed instruction
system.cpu0.commit.op_class_0::SimdFloatSqrt            0      0.00%     83.96% # Class of committed instruction
system.cpu0.commit.op_class_0::MemRead         664452     14.61%     98.57% # Class of committed instruction
system.cpu0.commit.op_class_0::MemWrite         63735      1.40%     99.97% # Class of committed instruction
system.cpu0.commit.op_class_0::FloatMemRead          856      0.02%     99.99% # Class of committed instruction
system.cpu0.commit.op_class_0::FloatMemWrite          400      0.01%    100.00% # Class of committed instruction
system.cpu0.commit.op_class_0::IprAccess            0      0.00%    100.00% # Class of committed instruction
system.cpu0.commit.op_class_0::InstPrefetch            0      0.00%    100.00% # Class of committed instruction
system.cpu0.commit.op_class_0::total          4548712                       # Class of committed instruction
system.cpu0.commit.bw_lim_events               322703                       # number cycles where commit BW limit reached
system.cpu0.rob.rob_reads                     9735457                       # The number of ROB reads
system.cpu0.rob.rob_writes                    9773622                       # The number of ROB writes
system.cpu0.timesIdled                            785                       # Number of times that the entire CPU went into an idle state and unscheduled itself
system.cpu0.idleCycles                          79604                       # Total number of cycles that the CPU has spent unscheduled due to idling
system.cpu0.committedInsts                    2290426                       # Number of Instructions Simulated
system.cpu0.committedOps                      4548712                       # Number of Ops (including micro ops) Simulated
system.cpu0.cpi                              2.323904                       # CPI: Cycles Per Instruction
system.cpu0.cpi_total                        2.323904                       # CPI: Total CPI of All Threads
system.cpu0.ipc                              0.430310                       # IPC: Instructions Per Cycle
system.cpu0.ipc_total                        0.430310                       # IPC: Total IPC of All Threads
system.cpu0.int_regfile_reads                 5584374                       # number of integer regfile reads
system.cpu0.int_regfile_writes                3929063                       # number of integer regfile writes
system.cpu0.fp_regfile_reads                     9419                       # number of floating regfile reads
system.cpu0.fp_regfile_writes                    5445                       # number of floating regfile writes
system.cpu0.cc_regfile_reads                  2752242                       # number of cc regfile reads
system.cpu0.cc_regfile_writes                 1340414                       # number of cc regfile writes
system.cpu0.misc_regfile_reads                2651629                       # number of misc regfile reads
system.cpu1.branchPred.lookups                1100290                       # Number of BP lookups
system.cpu1.branchPred.condPredicted          1100290                       # Number of conditional branches predicted
system.cpu1.branchPred.condIncorrect             8569                       # Number of conditional branches incorrect
system.cpu1.branchPred.BTBLookups              765778                       # Number of BTB lookups
system.cpu1.branchPred.BTBHits                      0                       # Number of BTB hits
system.cpu1.branchPred.BTBCorrect                   0                       # Number of correct BTB predictions (this stat may not work properly.
system.cpu1.branchPred.BTBHitPct             0.000000                       # BTB Hit Percentage
system.cpu1.branchPred.usedRAS                  66031                       # Number of times the RAS was used to get a target.
system.cpu1.branchPred.RASInCorrect               453                       # Number of incorrect RAS predictions.
system.cpu1.branchPred.indirectLookups         765778                       # Number of indirect predictor lookups.
system.cpu1.branchPred.indirectHits            562286                       # Number of indirect target hits.
system.cpu1.branchPred.indirectMisses          203492                       # Number of indirect misses.
system.cpu1.branchPredindirectMispredicted         4506                       # Number of mispredicted indirect branches.
system.cpu1.clk_domain.clock                      500                       # Clock period in ticks
system.cpu1.dtb.walker.pwrStateResidencyTicks::UNDEFINED   4957714000                       # Cumulative time (in ticks) in various power states
system.cpu1.apic_clk_domain.clock                8000                       # Clock period in ticks
system.cpu1.interrupts.pwrStateResidencyTicks::UNDEFINED   4957714000                       # Cumulative time (in ticks) in various power states
system.cpu1.itb.walker.pwrStateResidencyTicks::UNDEFINED   4957714000                       # Cumulative time (in ticks) in various power states
system.cpu1.workload.num_syscalls               63756                       # Number of system calls
system.cpu1.pwrStateResidencyTicks::ON     4957714000                       # Cumulative time (in ticks) in various power states
system.cpu1.numCycles                         7184146                       # number of cpu cycles simulated
system.cpu1.numWorkItemsStarted                     0                       # number of work items this cpu started
system.cpu1.numWorkItemsCompleted                   0                       # number of work items this cpu completed
system.cpu1.fetch.icacheStallCycles            480984                       # Number of cycles fetch is stalled on an Icache miss
system.cpu1.fetch.Insts                       3312098                       # Number of instructions fetch has processed
system.cpu1.fetch.Branches                    1100290                       # Number of branches that fetch encountered
system.cpu1.fetch.predictedBranches            628317                       # Number of branches that fetch has predicted taken
system.cpu1.fetch.Cycles                      6596268                       # Number of cycles fetch has run and was not squashing or blocked
system.cpu1.fetch.SquashCycles                  17307                       # Number of cycles fetch has spent squashing
system.cpu1.fetch.MiscStallCycles               10686                       # Number of cycles fetch has spent waiting on interrupts, or bad addresses, or out of MSHRs
system.cpu1.fetch.NoActiveThreadStallCycles           10                       # Number of stall cycles due to no active thread to fetch from
system.cpu1.fetch.PendingTrapStallCycles          592                       # Number of stall cycles due to pending traps
system.cpu1.fetch.PendingQuiesceStallCycles           14                       # Number of stall cycles due to pending quiesce instructions
system.cpu1.fetch.IcacheWaitRetryStallCycles         6743                       # Number of stall cycles due to full MSHR
system.cpu1.fetch.CacheLines                   451923                       # Number of cache lines fetched
system.cpu1.fetch.IcacheSquashes                 2568                       # Number of outstanding Icache misses that were squashed
system.cpu1.fetch.rateDist::samples           7103950                       # Number of instructions fetched each cycle (Total)
system.cpu1.fetch.rateDist::mean             0.926520                       # Number of instructions fetched each cycle (Total)
system.cpu1.fetch.rateDist::stdev            2.308030                       # Number of instructions fetched each cycle (Total)
system.cpu1.fetch.rateDist::underflows              0      0.00%      0.00% # Number of instructions fetched each cycle (Total)
system.cpu1.fetch.rateDist::0                 5986636     84.27%     84.27% # Number of instructions fetched each cycle (Total)
system.cpu1.fetch.rateDist::1                    8207      0.12%     84.39% # Number of instructions fetched each cycle (Total)
system.cpu1.fetch.rateDist::2                   35641      0.50%     84.89% # Number of instructions fetched each cycle (Total)
system.cpu1.fetch.rateDist::3                  146163      2.06%     86.95% # Number of instructions fetched each cycle (Total)
system.cpu1.fetch.rateDist::4                  275214      3.87%     90.82% # Number of instructions fetched each cycle (Total)
system.cpu1.fetch.rateDist::5                    7581      0.11%     90.93% # Number of instructions fetched each cycle (Total)
system.cpu1.fetch.rateDist::6                   48068      0.68%     91.60% # Number of instructions fetched each cycle (Total)
system.cpu1.fetch.rateDist::7                  134716      1.90%     93.50% # Number of instructions fetched each cycle (Total)
system.cpu1.fetch.rateDist::8                  461724      6.50%    100.00% # Number of instructions fetched each cycle (Total)
system.cpu1.fetch.rateDist::overflows               0      0.00%    100.00% # Number of instructions fetched each cycle (Total)
system.cpu1.fetch.rateDist::min_value               0                       # Number of instructions fetched each cycle (Total)
system.cpu1.fetch.rateDist::max_value               8                       # Number of instructions fetched each cycle (Total)
system.cpu1.fetch.rateDist::total             7103950                       # Number of instructions fetched each cycle (Total)
system.cpu1.fetch.branchRate                 0.153155                       # Number of branch fetches per cycle
system.cpu1.fetch.rate                       0.461029                       # Number of inst fetches per cycle
system.cpu1.decode.IdleCycles                  279584                       # Number of cycles decode is idle
system.cpu1.decode.BlockedCycles              5968572                       # Number of cycles decode is blocked
system.cpu1.decode.RunCycles                   349406                       # Number of cycles decode is running
system.cpu1.decode.UnblockCycles               497725                       # Number of cycles decode is unblocking
system.cpu1.decode.SquashCycles                  8653                       # Number of cycles decode is squashing
system.cpu1.decode.DecodedInsts               6501726                       # Number of instructions handled by decode
system.cpu1.rename.SquashCycles                  8653                       # Number of cycles rename is squashing
system.cpu1.rename.IdleCycles                  402543                       # Number of cycles rename is idle
system.cpu1.rename.BlockCycles                 893860                       # Number of cycles rename is blocking
system.cpu1.rename.serializeStallCycles       4314815                       # count of cycles rename stalled for serializing inst
system.cpu1.rename.RunCycles                   540618                       # Number of cycles rename is running
system.cpu1.rename.UnblockCycles               943451                       # Number of cycles rename is unblocking
system.cpu1.rename.RenamedInsts               6459729                       # Number of instructions processed by rename
system.cpu1.rename.ROBFullEvents               441679                       # Number of times rename has blocked due to ROB full
system.cpu1.rename.IQFullEvents                 13876                       # Number of times rename has blocked due to IQ full
system.cpu1.rename.LQFullEvents                178850                       # Number of times rename has blocked due to LQ full
system.cpu1.rename.SQFullEvents                 99419                       # Number of times rename has blocked due to SQ full
system.cpu1.rename.RenamedOperands            7078452                       # Number of destination operands rename has renamed
system.cpu1.rename.RenameLookups             14746994                       # Number of register rename lookups that rename has made
system.cpu1.rename.int_rename_lookups         7476414                       # Number of integer rename lookups
system.cpu1.rename.fp_rename_lookups            17996                       # Number of floating rename lookups
system.cpu1.rename.CommittedMaps              6573023                       # Number of HB maps that are committed
system.cpu1.rename.UndoneMaps                  505429                       # Number of HB maps that are undone due to squashing
system.cpu1.rename.serializingInsts             63795                       # count of serializing insts renamed
system.cpu1.rename.tempSerializingInsts         63799                       # count of temporary serializing insts renamed
system.cpu1.rename.skidInsts                  3088181                       # count of insts added to the skid buffer
system.cpu1.memDep0.insertedLoads              927577                       # Number of loads inserted to the mem dependence unit.
system.cpu1.memDep0.insertedStores             105169                       # Number of stores inserted to the mem dependence unit.
system.cpu1.memDep0.conflictingLoads            16512                       # Number of conflicting loads.
system.cpu1.memDep0.conflictingStores            1772                       # Number of conflicting stores.
system.cpu1.iq.iqInstsAdded                   6321038                       # Number of instructions added to the IQ (excludes non-spec)
system.cpu1.iq.iqNonSpecInstsAdded              63840                       # Number of non-speculative instructions added to the IQ
system.cpu1.iq.iqInstsIssued                  6385849                       # Number of instructions issued
system.cpu1.iq.iqSquashedInstsIssued             6388                       # Number of squashed instructions issued
system.cpu1.iq.iqSquashedInstsExamined         333756                       # Number of squashed instructions iterated over during squash; mainly for profiling
system.cpu1.iq.iqSquashedOperandsExamined       503074                       # Number of squashed operands that are examined and possibly removed from graph
system.cpu1.iq.iqSquashedNonSpecRemoved            84                       # Number of squashed non-spec instructions that were removed
system.cpu1.iq.issued_per_cycle::samples      7103950                       # Number of insts issued each cycle
[...]
system.ruby.L1Cache_Controller.Load      |      458640     18.39%     18.39% |      602755     24.17%     42.57% |      829115     33.25%     75.82% |      533127     21.38%     97.20% |       69859      2.80%    100.00%
system.ruby.L1Cache_Controller.Load::total      2493496                      
system.ruby.L1Cache_Controller.Ifetch    |      324398     21.91%     21.91% |      451758     30.51%     52.42% |      656929     44.37%     96.79% |       47508      3.21%    100.00% |           0      0.00%    100.00%
system.ruby.L1Cache_Controller.Ifetch::total      1480593                      
system.ruby.L1Cache_Controller.Store     |       64596     14.28%     14.28% |       95935     21.21%     35.49% |      144442     31.93%     67.42% |       77530     17.14%     84.56% |       69859     15.44%    100.00%
system.ruby.L1Cache_Controller.Store::total       452362                      
system.ruby.L1Cache_Controller.L1_Replacement |        2762     13.11%     13.11% |        3192     15.15%     28.26% |        3933     18.67%     46.93% |        4579     21.73%     68.66% |        6602     31.34%    100.00%
system.ruby.L1Cache_Controller.L1_Replacement::total        21068                      
system.ruby.L1Cache_Controller.Data_Shared |         431     13.40%     13.40% |         471     14.64%     28.04% |         432     13.43%     41.47% |         449     13.96%     55.42% |        1434     44.58%    100.00%
system.ruby.L1Cache_Controller.Data_Shared::total         3217                      
system.ruby.L1Cache_Controller.Data_All_Tokens |        3901     15.50%     15.50% |        4296     17.07%     32.57% |        5075     20.16%     52.73% |        5705     22.67%     75.40% |        6193     24.60%    100.00%
system.ruby.L1Cache_Controller.Data_All_Tokens::total        25170                      
system.ruby.L1Cache_Controller.Transient_Local_GETX |        9146     22.91%     22.91% |        8756     21.94%     44.85% |        7961     19.94%     64.79% |        7330     18.36%     83.16% |        6723     16.84%    100.00%
system.ruby.L1Cache_Controller.Transient_Local_GETX::total        39916                      
system.ruby.L1Cache_Controller.Transient_Local_GETS |       14909     20.25%     20.25% |       14864     20.19%     40.43% |       14919     20.26%     60.70% |       14903     20.24%     80.94% |       14037     19.06%    100.00%
system.ruby.L1Cache_Controller.Transient_Local_GETS::total        73632                      
system.ruby.L1Cache_Controller.Persistent_GETX |         251     18.79%     18.79% |         242     18.11%     36.90% |         244     18.26%     55.16% |         265     19.84%     75.00% |         334     25.00%    100.00%
system.ruby.L1Cache_Controller.Persistent_GETX::total         1336                      
system.ruby.L1Cache_Controller.Persistent_GETS |         596     18.86%     18.86% |         565     17.88%     36.74% |         608     19.24%     55.98% |         601     19.02%     75.00% |         790     25.00%    100.00%
system.ruby.L1Cache_Controller.Persistent_GETS::total         3160                      
system.ruby.L1Cache_Controller.Own_Lock_or_Unlock |        1401     20.77%     20.77% |        1441     21.37%     42.14% |        1396     20.70%     62.84% |        1382     20.49%     83.33% |        1124     16.67%    100.00%
system.ruby.L1Cache_Controller.Own_Lock_or_Unlock::total         6744                      
system.ruby.L1Cache_Controller.Request_Timeout |        1701     25.34%     25.34% |        1722     25.65%     50.99% |        1793     26.71%     77.70% |        1497     22.30%    100.00% |           0      0.00%    100.00%
system.ruby.L1Cache_Controller.Request_Timeout::total         6713                      
system.ruby.L1Cache_Controller.Use_TimeoutNoStarvers |        3901     15.50%     15.50% |        4296     17.07%     32.57% |        5074     20.16%     52.73% |        5705     22.67%     75.39% |        6193     24.61%    100.00%
system.ruby.L1Cache_Controller.Use_TimeoutNoStarvers::total        25169                      
system.ruby.L1Cache_Controller.NP.Load   |        2274     16.79%     16.79% |        2322     17.15%     33.94% |        2278     16.82%     50.77% |        2295     16.95%     67.72% |        4371     32.28%    100.00%
system.ruby.L1Cache_Controller.NP.Load::total        13540                      
system.ruby.L1Cache_Controller.NP.Ifetch |        1225     25.16%     25.16% |        1222     25.10%     50.27% |        1211     24.88%     75.14% |        1210     24.86%    100.00% |           0      0.00%    100.00%
system.ruby.L1Cache_Controller.NP.Ifetch::total         4868                      
system.ruby.L1Cache_Controller.NP.Store  |         792      8.08%      8.08% |        1175     11.99%     20.08% |        1976     20.17%     40.24% |        2600     26.54%     66.78% |        3255     33.22%    100.00%
system.ruby.L1Cache_Controller.NP.Store::total         9798                      
system.ruby.L1Cache_Controller.NP.Transient_Local_GETX |        9146     24.01%     24.01% |        8756     22.99%     47.00% |        7159     18.79%     65.79% |        6310     16.57%     82.36% |        6721     17.64%    100.00%
system.ruby.L1Cache_Controller.NP.Transient_Local_GETX::total        38092                      
system.ruby.L1Cache_Controller.NP.Transient_Local_GETS |       14652     20.73%     20.73% |       14225     20.12%     40.85% |       13898     19.66%     60.51% |       13883     19.64%     80.14% |       14037     19.86%    100.00%
system.ruby.L1Cache_Controller.NP.Transient_Local_GETS::total        70695                      
system.ruby.L1Cache_Controller.NP.Own_Lock_or_Unlock |         847     18.84%     18.84% |         807     17.95%     36.79% |         852     18.95%     55.74% |         866     19.26%     75.00% |        1124     25.00%    100.00%
system.ruby.L1Cache_Controller.NP.Own_Lock_or_Unlock::total         4496                      
system.ruby.L1Cache_Controller.I.Store   |           1     25.00%     25.00% |           1     25.00%     50.00% |           1     25.00%     75.00% |           1     25.00%    100.00% |           0      0.00%    100.00%
system.ruby.L1Cache_Controller.I.Store::total            4                      
system.ruby.L1Cache_Controller.I.L1_Replacement |           8      2.74%      2.74% |          29      9.93%     12.67% |         127     43.49%     56.16% |         126     43.15%     99.32% |           2      0.68%    100.00%
system.ruby.L1Cache_Controller.I.L1_Replacement::total          292                      
system.ruby.L1Cache_Controller.I.Transient_Local_GETX |           0      0.00%      0.00% |           0      0.00%      0.00% |         802     44.02%     44.02% |        1020     55.98%    100.00% |           0      0.00%    100.00%
system.ruby.L1Cache_Controller.I.Transient_Local_GETX::total         1822                      
system.ruby.L1Cache_Controller.S.Load    |      359576     18.83%     18.83% |      465809     24.39%     43.22% |      644013     33.72%     76.94% |      418917     21.93%     98.87% |       21496      1.13%    100.00%
system.ruby.L1Cache_Controller.S.Load::total      1909811                      
system.ruby.L1Cache_Controller.S.Ifetch  |      179939     20.61%     20.61% |      256473     29.37%     49.98% |      435719     49.90%     99.87% |        1095      0.13%    100.00% |           0      0.00%    100.00%
system.ruby.L1Cache_Controller.S.Ifetch::total       873226                      
system.ruby.L1Cache_Controller.S.Store   |          40     22.60%     22.60% |          47     26.55%     49.15% |          41     23.16%     72.32% |          48     27.12%     99.44% |           1      0.56%    100.00%
system.ruby.L1Cache_Controller.S.Store::total          177                      
system.ruby.L1Cache_Controller.S.L1_Replacement |         203      8.32%      8.32% |         276     11.31%     19.63% |         260     10.66%     30.29% |         268     10.98%     41.27% |        1433     58.73%    100.00%
system.ruby.L1Cache_Controller.S.L1_Replacement::total         2440                      
system.ruby.L1Cache_Controller.M.Load    |       15590     15.02%     15.02% |       15735     15.16%     30.18% |       15742     15.17%     45.35% |       15685     15.11%     60.46% |       41031     39.54%    100.00%
system.ruby.L1Cache_Controller.M.Load::total       103783                      
system.ruby.L1Cache_Controller.M.Ifetch  |      142790     23.77%     23.77% |      193615     32.23%     56.00% |      219555     36.55%     92.55% |       44770      7.45%    100.00% |           0      0.00%    100.00%
system.ruby.L1Cache_Controller.M.Ifetch::total       600730                      
system.ruby.L1Cache_Controller.M.Store   |          47      3.60%      3.60% |          48      3.68%      7.28% |          47      3.60%     10.88% |          48      3.68%     14.56% |        1115     85.44%    100.00%
system.ruby.L1Cache_Controller.M.Store::total         1305                      
system.ruby.L1Cache_Controller.M.L1_Replacement |        2008     17.90%     17.90% |        2320     20.68%     38.59% |        2529     22.55%     61.14% |        2537     22.62%     83.76% |        1822     16.24%    100.00%
system.ruby.L1Cache_Controller.M.L1_Replacement::total        11216                      
system.ruby.L1Cache_Controller.M.Own_Lock_or_Unlock |         189     24.26%     24.26% |         224     28.75%     53.02% |         179     22.98%     75.99% |         187     24.01%    100.00% |           0      0.00%    100.00%
system.ruby.L1Cache_Controller.M.Own_Lock_or_Unlock::total          779                      
system.ruby.L1Cache_Controller.MM.Load   |       70023     16.73%     16.73% |      107686     25.73%     42.46% |      155749     37.21%     79.67% |       85098     20.33%    100.00% |           0      0.00%    100.00%
system.ruby.L1Cache_Controller.MM.Load::total       418556                      
system.ruby.L1Cache_Controller.MM.Store  |       58586     15.43%     15.43% |       84996     22.39%     37.82% |      124201     32.71%     70.53% |       49632     13.07%     83.61% |       62232     16.39%    100.00%
system.ruby.L1Cache_Controller.MM.Store::total       379647                      
system.ruby.L1Cache_Controller.MM.L1_Replacement |         543      7.63%      7.63% |         567      7.96%     15.59% |        1017     14.28%     29.87% |        1648     23.15%     53.02% |        3345     46.98%    100.00%
system.ruby.L1Cache_Controller.MM.L1_Replacement::total         7120                      
system.ruby.L1Cache_Controller.MM.Transient_Local_GETX |           0      0.00%      0.00% |           0      0.00%      0.00% |           0      0.00%      0.00% |           0      0.00%      0.00% |           2    100.00%    100.00%
system.ruby.L1Cache_Controller.MM.Transient_Local_GETX::total            2                      
system.ruby.L1Cache_Controller.MM.Transient_Local_GETS |         257      8.75%      8.75% |         639     21.76%     30.51% |        1021     34.76%     65.27% |        1020     34.73%    100.00% |           0      0.00%    100.00%
system.ruby.L1Cache_Controller.MM.Transient_Local_GETS::total         2937                      
system.ruby.L1Cache_Controller.MM.Own_Lock_or_Unlock |          88     25.51%     25.51% |          93     26.96%     52.46% |          93     26.96%     79.42% |          71     20.58%    100.00% |           0      0.00%    100.00%
system.ruby.L1Cache_Controller.MM.Own_Lock_or_Unlock::total          345                      
system.ruby.L1Cache_Controller.M_W.Load  |       11135     23.38%     23.38% |       11163     23.44%     46.82% |       11276     23.68%     70.50% |       11085     23.28%     93.78% |        2961      6.22%    100.00%
system.ruby.L1Cache_Controller.M_W.Load::total        47620                      
system.ruby.L1Cache_Controller.M_W.Ifetch |         444     25.10%     25.10% |         448     25.33%     50.42% |         444     25.10%     75.52% |         433     24.48%    100.00% |           0      0.00%    100.00%
system.ruby.L1Cache_Controller.M_W.Ifetch::total         1769                      
system.ruby.L1Cache_Controller.M_W.Store |          15     25.42%     25.42% |          14     23.73%     49.15% |          16     27.12%     76.27% |          14     23.73%    100.00% |           0      0.00%    100.00%
system.ruby.L1Cache_Controller.M_W.Store::total           59                      
system.ruby.L1Cache_Controller.M_W.Own_Lock_or_Unlock |          21     19.27%     19.27% |          25     22.94%     42.20% |          30     27.52%     69.72% |          33     30.28%    100.00% |           0      0.00%    100.00%
system.ruby.L1Cache_Controller.M_W.Own_Lock_or_Unlock::total          109                      
system.ruby.L1Cache_Controller.M_W.Use_TimeoutNoStarvers |        3053     20.18%     20.18% |        3059     20.22%     40.39% |        3040     20.09%     60.49% |        3042     20.10%     80.59% |        2937     19.41%    100.00%
system.ruby.L1Cache_Controller.M_W.Use_TimeoutNoStarvers::total        15131                      
system.ruby.L1Cache_Controller.MM_W.Load |          42     22.58%     22.58% |          40     21.51%     44.09% |          57     30.65%     74.73% |          47     25.27%    100.00% |           0      0.00%    100.00%
system.ruby.L1Cache_Controller.MM_W.Load::total          186                      
system.ruby.L1Cache_Controller.MM_W.Store |        5115      8.33%      8.33% |        9654     15.73%     24.06% |       18160     29.59%     53.65% |       25187     41.04%     94.69% |        3256      5.31%    100.00%
system.ruby.L1Cache_Controller.MM_W.Store::total        61372                      
system.ruby.L1Cache_Controller.MM_W.Own_Lock_or_Unlock |          10     28.57%     28.57% |           9     25.71%     54.29% |          10     28.57%     82.86% |           6     17.14%    100.00% |           0      0.00%    100.00%
system.ruby.L1Cache_Controller.MM_W.Own_Lock_or_Unlock::total           35                      
system.ruby.L1Cache_Controller.MM_W.Use_TimeoutNoStarvers |         848      8.45%      8.45% |        1237     12.32%     20.77% |        2034     20.26%     41.03% |        2663     26.53%     67.56% |        3256     32.44%    100.00%
system.ruby.L1Cache_Controller.MM_W.Use_TimeoutNoStarvers::total        10038                      
system.ruby.L1Cache_Controller.IM.Data_All_Tokens |         793      8.09%      8.09% |        1176     12.00%     20.09% |        1977     20.17%     40.26% |        2601     26.54%     66.79% |        3255     33.21%    100.00%
system.ruby.L1Cache_Controller.IM.Data_All_Tokens::total         9802                      
system.ruby.L1Cache_Controller.IM.Own_Lock_or_Unlock |          74     24.58%     24.58% |          83     27.57%     52.16% |          81     26.91%     79.07% |          63     20.93%    100.00% |           0      0.00%    100.00%
system.ruby.L1Cache_Controller.IM.Own_Lock_or_Unlock::total          301                      
system.ruby.L1Cache_Controller.IM.Request_Timeout |         266     26.98%     26.98% |         167     16.94%     43.91% |         323     32.76%     76.67% |         230     23.33%    100.00% |           0      0.00%    100.00%
system.ruby.L1Cache_Controller.IM.Request_Timeout::total          986                      
system.ruby.L1Cache_Controller.SM.Data_All_Tokens |          40     22.60%     22.60% |          47     26.55%     49.15% |          41     23.16%     72.32% |          48     27.12%     99.44% |           1      0.56%    100.00%
system.ruby.L1Cache_Controller.SM.Data_All_Tokens::total          177                      
system.ruby.L1Cache_Controller.IS.Data_Shared |         431     13.40%     13.40% |         471     14.64%     28.04% |         432     13.43%     41.47% |         449     13.96%     55.42% |        1434     44.58%    100.00%
system.ruby.L1Cache_Controller.IS.Data_Shared::total         3217                      
system.ruby.L1Cache_Controller.IS.Data_All_Tokens |        3068     20.20%     20.20% |        3073     20.23%     40.43% |        3057     20.12%     60.55% |        3056     20.12%     80.67% |        2937     19.33%    100.00%
system.ruby.L1Cache_Controller.IS.Data_All_Tokens::total        15191                      
system.ruby.L1Cache_Controller.IS.Own_Lock_or_Unlock |         172     25.33%     25.33% |         200     29.46%     54.79% |         151     22.24%     77.03% |         156     22.97%    100.00% |           0      0.00%    100.00%
system.ruby.L1Cache_Controller.IS.Own_Lock_or_Unlock::total          679                      
system.ruby.L1Cache_Controller.IS.Request_Timeout |        1435     25.06%     25.06% |        1555     27.15%     52.21% |        1470     25.67%     77.88% |        1267     22.12%    100.00% |           0      0.00%    100.00%
system.ruby.L1Cache_Controller.IS.Request_Timeout::total         5727                      
system.ruby.L1Cache_Controller.I_L.Persistent_GETX |         251     18.79%     18.79% |         242     18.11%     36.90% |         244     18.26%     55.16% |         265     19.84%     75.00% |         334     25.00%    100.00%
system.ruby.L1Cache_Controller.I_L.Persistent_GETX::total         1336                      
system.ruby.L1Cache_Controller.I_L.Persistent_GETS |         596     18.86%     18.86% |         565     17.88%     36.74% |         608     19.24%     55.98% |         601     19.02%     75.00% |         790     25.00%    100.00%
system.ruby.L1Cache_Controller.I_L.Persistent_GETS::total         3160                      
system.ruby.L2Cache_Controller.L1_GETS          18408      0.00%      0.00%
system.ruby.L2Cache_Controller.L1_GETX           9979      0.00%      0.00%
system.ruby.L2Cache_Controller.L1_INV            2939      0.00%      0.00%
system.ruby.L2Cache_Controller.L2_Replacement           34      0.00%      0.00%
system.ruby.L2Cache_Controller.Writeback_Shared_Data            1      0.00%      0.00%
system.ruby.L2Cache_Controller.Writeback_All_Tokens        20775      0.00%      0.00%
system.ruby.L2Cache_Controller.Persistent_GETX          334      0.00%      0.00%
system.ruby.L2Cache_Controller.Persistent_GETS          790      0.00%      0.00%
system.ruby.L2Cache_Controller.Own_Lock_or_Unlock         1124      0.00%      0.00%
system.ruby.L2Cache_Controller.NP.L1_GETS        15184      0.00%      0.00%
system.ruby.L2Cache_Controller.NP.L1_GETX         6356      0.00%      0.00%
system.ruby.L2Cache_Controller.NP.L1_INV         2930      0.00%      0.00%
system.ruby.L2Cache_Controller.NP.Writeback_Shared_Data            1      0.00%      0.00%
system.ruby.L2Cache_Controller.NP.Writeback_All_Tokens        15715      0.00%      0.00%
system.ruby.L2Cache_Controller.NP.Own_Lock_or_Unlock         1124      0.00%      0.00%
system.ruby.L2Cache_Controller.I.L1_GETS            7      0.00%      0.00%
system.ruby.L2Cache_Controller.I.L1_GETX            2      0.00%      0.00%
system.ruby.L2Cache_Controller.I.L1_INV             9      0.00%      0.00%
system.ruby.L2Cache_Controller.I.Writeback_All_Tokens         2621      0.00%      0.00%
system.ruby.L2Cache_Controller.O.L1_GETX          177      0.00%      0.00%
system.ruby.L2Cache_Controller.O.L2_Replacement            2      0.00%      0.00%
system.ruby.L2Cache_Controller.O.Writeback_All_Tokens         2439      0.00%      0.00%
system.ruby.L2Cache_Controller.M.L1_GETS         3217      0.00%      0.00%
system.ruby.L2Cache_Controller.M.L1_GETX         3444      0.00%      0.00%
system.ruby.L2Cache_Controller.M.L2_Replacement           32      0.00%      0.00%
system.ruby.L2Cache_Controller.I_L.Persistent_GETX          334      0.00%      0.00%
system.ruby.L2Cache_Controller.I_L.Persistent_GETS          790      0.00%      0.00%

---------- End Simulation Statistics   ----------
