
---------- Begin Simulation Statistics ----------
sim_seconds                                  0.001591                       # Number of seconds simulated
sim_ticks                                  1590715500                       # Number of ticks simulated
final_tick                                 1590715500                       # Number of ticks from beginning of simulation (restored from checkpoints and never reset)
sim_freq                                 1000000000000                       # Frequency of simulated ticks
host_inst_rate                                  41691                       # Simulator instruction rate (inst/s)
host_op_rate                                    82818                       # Simulator op (including micro ops) rate (op/s)
host_tick_rate                               17132968                       # Simulator tick rate (ticks/s)
host_mem_usage                                 848032                       # Number of bytes of host memory used
host_seconds                                    92.85                       # Real time elapsed on the host
sim_insts                                     3870799                       # Number of instructions simulated
sim_ops                                       7689236                       # Number of ops (including micro ops) simulated
system.voltage_domain.voltage                       1                       # Voltage in Volts
system.clk_domain.clock                          1000                       # Clock period in ticks
system.mem_ctrls.pwrStateResidencyTicks::UNDEFINED   1590715500                       # Cumulative time (in ticks) in various power states
system.mem_ctrls.bytes_read::ruby.dir_cntrl0       905472                       # Number of bytes read from this memory
system.mem_ctrls.bytes_read::total             905472                       # Number of bytes read from this memory
system.mem_ctrls.num_reads::ruby.dir_cntrl0        14148                       # Number of read requests responded to by this memory
system.mem_ctrls.num_reads::total               14148                       # Number of read requests responded to by this memory
system.mem_ctrls.bw_read::ruby.dir_cntrl0    569223095                       # Total read bandwidth from this memory (bytes/s)
system.mem_ctrls.bw_read::total             569223095                       # Total read bandwidth from this memory (bytes/s)
system.mem_ctrls.bw_total::ruby.dir_cntrl0    569223095                       # Total bandwidth to/from this memory (bytes/s)
system.mem_ctrls.bw_total::total            569223095                       # Total bandwidth to/from this memory (bytes/s)
system.mem_ctrls.readReqs                       14148                       # Number of read requests accepted
system.mem_ctrls.avgNetLat                       0.00                       # Average network latency to DRAM controller
system.mem_ctrls.writeReqs                          0                       # Number of write requests accepted
system.mem_ctrls.readBursts                     14148                       # Number of DRAM read bursts, including those serviced by the write queue
system.mem_ctrls.writeBursts                        0                       # Number of DRAM write bursts, including those merged in the write queue
system.mem_ctrls.bytesReadDRAM                 905472                       # Total number of bytes read from DRAM
system.mem_ctrls.bytesReadWrQ                       0                       # Total number of bytes read from write queue
system.mem_ctrls.bytesWritten                       0                       # Total number of bytes written to DRAM
system.mem_ctrls.bytesReadSys                  905472                       # Total read bytes from the system interface side
system.mem_ctrls.bytesWrittenSys                    0                       # Total written bytes from the system interface side
system.mem_ctrls.servicedByWrQ                      0                       # Number of DRAM read bursts serviced by the write queue
system.mem_ctrls.mergedWrBursts                     0                       # Number of DRAM write bursts merged with an existing one
system.mem_ctrls.neitherReadNorWriteReqs            0                       # Number of requests that are neither read nor write
system.mem_ctrls.perBankRdBursts::0               923                       # Per bank write bursts
system.mem_ctrls.perBankRdBursts::1               895                       # Per bank write bursts
system.mem_ctrls.perBankRdBursts::2               848                       # Per bank write bursts
system.mem_ctrls.perBankRdBursts::3               679                       # Per bank write bursts
system.mem_ctrls.perBankRdBursts::4               704                       # Per bank write bursts
system.mem_ctrls.perBankRdBursts::5               955                       # Per bank write bursts
system.mem_ctrls.perBankRdBursts::6              1106                       # Per bank write bursts
system.mem_ctrls.perBankRdBursts::7              1086                       # Per bank write bursts
system.mem_ctrls.perBankRdBursts::8               952                       # Per bank write bursts
system.mem_ctrls.perBankRdBursts::9               836                       # Per bank write bursts
system.mem_ctrls.perBankRdBursts::10              738                       # Per bank write bursts
system.mem_ctrls.perBankRdBursts::11              642                       # Per bank write bursts
system.mem_ctrls.perBankRdBursts::12              833                       # Per bank write bursts
system.mem_ctrls.perBankRdBursts::13             1010                       # Per bank write bursts
system.mem_ctrls.perBankRdBursts::14              921                       # Per bank write bursts
system.mem_ctrls.perBankRdBursts::15             1020                       # Per bank write bursts
system.mem_ctrls.perBankWrBursts::0                 0                       # Per bank write bursts
system.mem_ctrls.perBankWrBursts::1                 0                       # Per bank write bursts
system.mem_ctrls.perBankWrBursts::2                 0                       # Per bank write bursts
system.mem_ctrls.perBankWrBursts::3                 0                       # Per bank write bursts
system.mem_ctrls.perBankWrBursts::4                 0                       # Per bank write bursts
system.mem_ctrls.perBankWrBursts::5                 0                       # Per bank write bursts
system.mem_ctrls.perBankWrBursts::6                 0                       # Per bank write bursts
system.mem_ctrls.perBankWrBursts::7                 0                       # Per bank write bursts
system.mem_ctrls.perBankWrBursts::8                 0                       # Per bank write bursts
system.mem_ctrls.perBankWrBursts::9                 0                       # Per bank write bursts
system.mem_ctrls.perBankWrBursts::10                0                       # Per bank write bursts
system.mem_ctrls.perBankWrBursts::11                0                       # Per bank write bursts
system.mem_ctrls.perBankWrBursts::12                0                       # Per bank write bursts
system.mem_ctrls.perBankWrBursts::13                0                       # Per bank write bursts
system.mem_ctrls.perBankWrBursts::14                0                       # Per bank write bursts
system.mem_ctrls.perBankWrBursts::15                0                       # Per bank write bursts
system.mem_ctrls.numRdRetry                         0                       # Number of times read queue was full causing retry
system.mem_ctrls.numWrRetry                         0                       # Number of times write queue was full causing retry
system.mem_ctrls.totGap                    1590650000                       # Total gap between requests
system.mem_ctrls.readPktSize::0                     0                       # Read request sizes (log2)
system.mem_ctrls.readPktSize::1                     0                       # Read request sizes (log2)
system.mem_ctrls.readPktSize::2                     0                       # Read request sizes (log2)
system.mem_ctrls.readPktSize::3                     0                       # Read request sizes (log2)
system.mem_ctrls.readPktSize::4                     0                       # Read request sizes (log2)
system.mem_ctrls.readPktSize::5                     0                       # Read request sizes (log2)
system.mem_ctrls.readPktSize::6                 14148                       # Read request sizes (log2)
system.mem_ctrls.writePktSize::0                    0                       # Write request sizes (log2)
system.mem_ctrls.writePktSize::1                    0                       # Write request sizes (log2)
system.mem_ctrls.writePktSize::2                    0                       # Write request sizes (log2)
system.mem_ctrls.writePktSize::3                    0                       # Write request sizes (log2)
system.mem_ctrls.writePktSize::4                    0                       # Write request sizes (log2)
system.mem_ctrls.writePktSize::5                    0                       # Write request sizes (log2)
system.mem_ctrls.writePktSize::6                    0                       # Write request sizes (log2)
system.mem_ctrls.rdQLenPdf::0                    1921                       # What read queue length does an incoming req see
system.mem_ctrls.rdQLenPdf::1                    2809                       # What read queue length does an incoming req see
system.mem_ctrls.rdQLenPdf::2                    2433                       # What read queue length does an incoming req see
system.mem_ctrls.rdQLenPdf::3                    1798                       # What read queue length does an incoming req see
system.mem_ctrls.rdQLenPdf::4                    1287                       # What read queue length does an incoming req see
system.mem_ctrls.rdQLenPdf::5                     984                       # What read queue length does an incoming req see
system.mem_ctrls.rdQLenPdf::6                     817                       # What read queue length does an incoming req see
system.mem_ctrls.rdQLenPdf::7                     751                       # What read queue length does an incoming req see
system.mem_ctrls.rdQLenPdf::8                     506                       # What read queue length does an incoming req see
system.mem_ctrls.rdQLenPdf::9                     335                       # What read queue length does an incoming req see
system.mem_ctrls.rdQLenPdf::10                    234                       # What read queue length does an incoming req see
system.mem_ctrls.rdQLenPdf::11                    124                       # What read queue length does an incoming req see
system.mem_ctrls.rdQLenPdf::12                     75                       # What read queue length does an incoming req see
system.mem_ctrls.rdQLenPdf::13                     41                       # What read queue length does an incoming req see
system.mem_ctrls.rdQLenPdf::14                     25                       # What read queue length does an incoming req see
system.mem_ctrls.rdQLenPdf::15                      7                       # What read queue length does an incoming req see
system.mem_ctrls.rdQLenPdf::16                      1                       # What read queue length does an incoming req see
system.mem_ctrls.rdQLenPdf::17                      0                       # What read queue length does an incoming req see
system.mem_ctrls.rdQLenPdf::18                      0                       # What read queue length does an incoming req see
system.mem_ctrls.rdQLenPdf::19                      0                       # What read queue length does an incoming req see
system.mem_ctrls.rdQLenPdf::20                      0                       # What read queue length does an incoming req see
system.mem_ctrls.rdQLenPdf::21                      0                       # What read queue length does an incoming req see
system.mem_ctrls.rdQLenPdf::22                      0                       # What read queue length does an incoming req see
system.mem_ctrls.rdQLenPdf::23                      0                       # What read queue length does an incoming req see
system.mem_ctrls.rdQLenPdf::24                      0                       # What read queue length does an incoming req see
system.mem_ctrls.rdQLenPdf::25                      0                       # What read queue length does an incoming req see
system.mem_ctrls.rdQLenPdf::26                      0                       # What read queue length does an incoming req see
system.mem_ctrls.rdQLenPdf::27                      0                       # What read queue length does an incoming req see
system.mem_ctrls.rdQLenPdf::28                      0                       # What read queue length does an incoming req see
system.mem_ctrls.rdQLenPdf::29                      0                       # What read queue length does an incoming req see
system.mem_ctrls.rdQLenPdf::30                      0                       # What read queue length does an incoming req see
system.mem_ctrls.rdQLenPdf::31                      0                       # What read queue length does an incoming req see
system.mem_ctrls.wrQLenPdf::0                       0                       # What write queue length does an incoming req see
system.mem_ctrls.wrQLenPdf::1                       0                       # What write queue length does an incoming req see
system.mem_ctrls.wrQLenPdf::2                       0                       # What write queue length does an incoming req see
system.mem_ctrls.wrQLenPdf::3                       0                       # What write queue length does an incoming req see
system.mem_ctrls.wrQLenPdf::4                       0                       # What write queue length does an incoming req see
system.mem_ctrls.wrQLenPdf::5                       0                       # What write queue length does an incoming req see
system.mem_ctrls.wrQLenPdf::6                       0                       # What write queue length does an incoming req see
system.mem_ctrls.wrQLenPdf::7                       0                       # What write queue length does an incoming req see
system.mem_ctrls.wrQLenPdf::8                       0                       # What write queue length does an incoming req see
system.mem_ctrls.wrQLenPdf::9                       0                       # What write queue length does an incoming req see
system.mem_ctrls.wrQLenPdf::10                      0                       # What write queue length does an incoming req see
system.mem_ctrls.wrQLenPdf::11                      0                       # What write queue length does an incoming req see
system.mem_ctrls.wrQLenPdf::12                      0                       # What write queue length does an incoming req see
system.mem_ctrls.wrQLenPdf::13                      0                       # What write queue length does an incoming req see
system.mem_ctrls.wrQLenPdf::14                      0                       # What write queue length does an incoming req see
system.mem_ctrls.wrQLenPdf::15                      0                       # What write queue length does an incoming req see
system.mem_ctrls.wrQLenPdf::16                      0                       # What write queue length does an incoming req see
system.mem_ctrls.wrQLenPdf::17                      0                       # What write queue length does an incoming req see
system.mem_ctrls.wrQLenPdf::18                      0                       # What write queue length does an incoming req see
system.mem_ctrls.wrQLenPdf::19                      0                       # What write queue length does an incoming req see
system.mem_ctrls.wrQLenPdf::20                      0                       # What write queue length does an incoming req see
system.mem_ctrls.wrQLenPdf::21                      0                       # What write queue length does an incoming req see
system.mem_ctrls.wrQLenPdf::22                      0                       # What write queue length does an incoming req see
system.mem_ctrls.wrQLenPdf::23                      0                       # What write queue length does an incoming req see
system.mem_ctrls.wrQLenPdf::24                      0                       # What write queue length does an incoming req see
system.mem_ctrls.wrQLenPdf::25                      0                       # What write queue length does an incoming req see
system.mem_ctrls.wrQLenPdf::26                      0                       # What write queue length does an incoming req see
system.mem_ctrls.wrQLenPdf::27                      0                       # What write queue length does an incoming req see
system.mem_ctrls.wrQLenPdf::28                      0                       # What write queue length does an incoming req see
system.mem_ctrls.wrQLenPdf::29                      0                       # What write queue length does an incoming req see
system.mem_ctrls.wrQLenPdf::30                      0                       # What write queue length does an incoming req see
system.mem_ctrls.wrQLenPdf::31                      0                       # What write queue length does an incoming req see
system.mem_ctrls.wrQLenPdf::32                      0                       # What write queue length does an incoming req see
system.mem_ctrls.wrQLenPdf::33                      0                       # What write queue length does an incoming req see
system.mem_ctrls.wrQLenPdf::34                      0                       # What write queue length does an incoming req see
system.mem_ctrls.wrQLenPdf::35                      0                       # What write queue length does an incoming req see
system.mem_ctrls.wrQLenPdf::36                      0                       # What write queue length does an incoming req see
system.mem_ctrls.wrQLenPdf::37                      0                       # What write queue length does an incoming req see
system.mem_ctrls.wrQLenPdf::38                      0                       # What write queue length does an incoming req see
system.mem_ctrls.wrQLenPdf::39                      0                       # What write queue length does an incoming req see
system.mem_ctrls.wrQLenPdf::40                      0                       # What write queue length does an incoming req see
system.mem_ctrls.wrQLenPdf::41                      0                       # What write queue length does an incoming req see
system.mem_ctrls.wrQLenPdf::42                      0                       # What write queue length does an incoming req see
system.mem_ctrls.wrQLenPdf::43                      0                       # What write queue length does an incoming req see
system.mem_ctrls.wrQLenPdf::44                      0                       # What write queue length does an incoming req see
system.mem_ctrls.wrQLenPdf::45                      0                       # What write queue length does an incoming req see
system.mem_ctrls.wrQLenPdf::46                      0                       # What write queue length does an incoming req see
system.mem_ctrls.wrQLenPdf::47                      0                       # What write queue length does an incoming req see
system.mem_ctrls.wrQLenPdf::48                      0                       # What write queue length does an incoming req see
system.mem_ctrls.wrQLenPdf::49                      0                       # What write queue length does an incoming req see
system.mem_ctrls.wrQLenPdf::50                      0                       # What write queue length does an incoming req see
system.mem_ctrls.wrQLenPdf::51                      0                       # What write queue length does an incoming req see
system.mem_ctrls.wrQLenPdf::52                      0                       # What write queue length does an incoming req see
system.mem_ctrls.wrQLenPdf::53                      0                       # What write queue length does an incoming req see
system.mem_ctrls.wrQLenPdf::54                      0                       # What write queue length does an incoming req see
system.mem_ctrls.wrQLenPdf::55                      0                       # What write queue length does an incoming req see
system.mem_ctrls.wrQLenPdf::56                      0                       # What write queue length does an incoming req see
system.mem_ctrls.wrQLenPdf::57                      0                       # What write queue length does an incoming req see
system.mem_ctrls.wrQLenPdf::58                      0                       # What write queue length does an incoming req see
system.mem_ctrls.wrQLenPdf::59                      0                       # What write queue length does an incoming req see
system.mem_ctrls.wrQLenPdf::60                      0                       # What write queue length does an incoming req see
system.mem_ctrls.wrQLenPdf::61                      0                       # What write queue length does an incoming req see
system.mem_ctrls.wrQLenPdf::62                      0                       # What write queue length does an incoming req see
system.mem_ctrls.wrQLenPdf::63                      0                       # What write queue length does an incoming req see
system.mem_ctrls.bytesPerActivate::samples         4687                       # Bytes accessed per row activation
system.mem_ctrls.bytesPerActivate::mean    192.873907                       # Bytes accessed per row activation
system.mem_ctrls.bytesPerActivate::gmean   117.758403                       # Bytes accessed per row activation
system.mem_ctrls.bytesPerActivate::stdev   255.287315                       # Bytes accessed per row activation
system.mem_ctrls.bytesPerActivate::0-127         2675     57.07%     57.07% # Bytes accessed per row activation
system.mem_ctrls.bytesPerActivate::128-255         1104     23.55%     80.63% # Bytes accessed per row activation
system.mem_ctrls.bytesPerActivate::256-383          278      5.93%     86.56% # Bytes accessed per row activation
system.mem_ctrls.bytesPerActivate::384-511          125      2.67%     89.23% # Bytes accessed per row activation
system.mem_ctrls.bytesPerActivate::512-639          100      2.13%     91.36% # Bytes accessed per row activation
system.mem_ctrls.bytesPerActivate::640-767           58      1.24%     92.60% # Bytes accessed per row activation
system.mem_ctrls.bytesPerActivate::768-895           40      0.85%     93.45% # Bytes accessed per row activation
system.mem_ctrls.bytesPerActivate::896-1023           28      0.60%     94.05% # Bytes accessed per row activation
system.mem_ctrls.bytesPerActivate::1024-1151          279      5.95%    100.00% # Bytes accessed per row activation
system.mem_ctrls.bytesPerActivate::total         4687                       # Bytes accessed per row activation
system.mem_ctrls.totQLat                    454760310                       # Total ticks spent queuing
system.mem_ctrls.totMemAccLat               720035310                       # Total ticks spent from burst creation until serviced by the DRAM
system.mem_ctrls.totBusLat                   70740000                       # Total ticks spent in databus transfers
system.mem_ctrls.avgQLat                     32143.08                       # Average queueing delay per DRAM burst
system.mem_ctrls.avgBusLat                    5000.00                       # Average bus latency per DRAM burst
system.mem_ctrls.avgMemAccLat                50893.08                       # Average memory access latency per DRAM burst
system.mem_ctrls.avgRdBW                       569.22                       # Average DRAM read bandwidth in MiByte/s
system.mem_ctrls.avgWrBW                         0.00                       # Average achieved write bandwidth in MiByte/s
system.mem_ctrls.avgRdBWSys                    569.22                       # Average system read bandwidth in MiByte/s
system.mem_ctrls.avgWrBWSys                      0.00                       # Average system write bandwidth in MiByte/s
system.mem_ctrls.peakBW                      12800.00                       # Theoretical peak bandwidth in MiByte/s
system.mem_ctrls.busUtil                         4.45                       # Data bus utilization in percentage
system.mem_ctrls.busUtilRead                     4.45                       # Data bus utilization in percentage for reads
system.mem_ctrls.busUtilWrite                    0.00                       # Data bus utilization in percentage for writes
system.mem_ctrls.avgRdQLen                       1.47                       # Average read queue length when enqueuing
system.mem_ctrls.avgWrQLen                       0.00                       # Average write queue length when enqueuing
system.mem_ctrls.readRowHits                     9452                       # Number of row buffer hits during reads
system.mem_ctrls.writeRowHits                       0                       # Number of row buffer hits during writes
system.mem_ctrls.readRowHitRate                 66.81                       # Row buffer hit rate for reads
system.mem_ctrls.writeRowHitRate                  nan                       # Row buffer hit rate for writes
system.mem_ctrls.avgGap                     112429.32                       # Average gap between requests
system.mem_ctrls.pageHitRate                    66.81                       # Row buffer hit rate, read and write combined
system.mem_ctrls_0.actEnergy                 17635800                       # Energy for activate commands per rank (pJ)
system.mem_ctrls_0.preEnergy                  9350880                       # Energy for precharge commands per rank (pJ)
system.mem_ctrls_0.readEnergy                51379440                       # Energy for read commands per rank (pJ)
system.mem_ctrls_0.writeEnergy                      0                       # Energy for write commands per rank (pJ)
system.mem_ctrls_0.refreshEnergy         26429520.000000                       # Energy for refresh commands per rank (pJ)
system.mem_ctrls_0.actBackEnergy             73571040                       # Energy for active background per rank (pJ)
system.mem_ctrls_0.preBackEnergy               913920                       # Energy for precharge background per rank (pJ)
system.mem_ctrls_0.actPowerDownEnergy        52770030                       # Energy for active power-down per rank (pJ)
system.mem_ctrls_0.prePowerDownEnergy        11602560                       # Energy for precharge power-down per rank (pJ)
system.mem_ctrls_0.selfRefreshEnergy        309662760                       # Energy for self refresh per rank (pJ)
system.mem_ctrls_0.totalEnergy              553315950                       # Total energy per rank (pJ)
system.mem_ctrls_0.averagePower            347.840760                       # Core power per rank (mW)
system.mem_ctrls_0.totalIdleTime           1426842538                       # Total Idle time Per DRAM Rank
system.mem_ctrls_0.memoryStateTime::IDLE      1270750                       # Time in different power states
system.mem_ctrls_0.memoryStateTime::REF      11204000                       # Time in different power states
system.mem_ctrls_0.memoryStateTime::SREF   1281057750                       # Time in different power states
system.mem_ctrls_0.memoryStateTime::PRE_PDN     30215000                       # Time in different power states
system.mem_ctrls_0.memoryStateTime::ACT     151247462                       # Time in different power states
system.mem_ctrls_0.memoryStateTime::ACT_PDN    115720538                       # Time in different power states
system.mem_ctrls_1.actEnergy                 15893640                       # Energy for activate commands per rank (pJ)
system.mem_ctrls_1.preEnergy                  8436285                       # Energy for precharge commands per rank (pJ)
system.mem_ctrls_1.readEnergy                49637280                       # Energy for read commands per rank (pJ)
system.mem_ctrls_1.writeEnergy                      0                       # Energy for write commands per rank (pJ)
system.mem_ctrls_1.refreshEnergy         26429520.000000                       # Energy for refresh commands per rank (pJ)
system.mem_ctrls_1.actBackEnergy             76381710                       # Energy for active background per rank (pJ)
system.mem_ctrls_1.preBackEnergy               960000                       # Energy for precharge background per rank (pJ)
system.mem_ctrls_1.actPowerDownEnergy        48508140                       # Energy for active power-down per rank (pJ)
system.mem_ctrls_1.prePowerDownEnergy        11889600                       # Energy for precharge power-down per rank (pJ)
system.mem_ctrls_1.selfRefreshEnergy        310218360                       # Energy for self refresh per rank (pJ)
system.mem_ctrls_1.totalEnergy              548354535                       # Total energy per rank (pJ)
system.mem_ctrls_1.averagePower            344.721779                       # Core power per rank (mW)
system.mem_ctrls_1.totalIdleTime           1420666037                       # Total Idle time Per DRAM Rank
system.mem_ctrls_1.memoryStateTime::IDLE      1197001                       # Time in different power states
system.mem_ctrls_1.memoryStateTime::REF      11204000                       # Time in different power states
system.mem_ctrls_1.memoryStateTime::SREF   1283373250                       # Time in different power states
system.mem_ctrls_1.memoryStateTime::PRE_PDN     30961250                       # Time in different power states
system.mem_ctrls_1.memoryStateTime::ACT     157618212                       # Time in different power states
system.mem_ctrls_1.memoryStateTime::ACT_PDN    106361787                       # Time in different power states
system.pwrStateResidencyTicks::UNDEFINED   1590715500                       # Cumulative time (in ticks) in various power states
system.cpu0.branchPred.lookups                 272953                       # Number of BP lookups
system.cpu0.branchPred.condPredicted           272953                       # Number of conditional branches predicted
system.cpu0.branchPred.condIncorrect             8469                       # Number of conditional branches incorrect
system.cpu0.branchPred.BTBLookups              251485                       # Number of BTB lookups
system.cpu0.branchPred.BTBHits                      0                       # Number of BTB hits
system.cpu0.branchPred.BTBCorrect                   0                       # Number of correct BTB predictions (this stat may not work properly.
system.cpu0.branchPred.BTBHitPct             0.000000                       # BTB Hit Percentage
system.cpu0.branchPred.usedRAS                   2384                       # Number of times the RAS was used to get a target.
system.cpu0.branchPred.RASInCorrect               460                       # Number of incorrect RAS predictions.
system.cpu0.branchPred.indirectLookups         251485                       # Number of indirect predictor lookups.
system.cpu0.branchPred.indirectHits            117563                       # Number of indirect target hits.
system.cpu0.branchPred.indirectMisses          133922                       # Number of indirect misses.
system.cpu0.branchPredindirectMispredicted         4508                       # Number of mispredicted indirect branches.
system.cpu_voltage_domain.voltage                   1                       # Voltage in Volts
system.cpu0.clk_domain.clock                      500                       # Clock period in ticks
system.cpu0.dtb.walker.pwrStateResidencyTicks::UNDEFINED   1590715500                       # Cumulative time (in ticks) in various power states
system.cpu0.apic_clk_domain.clock                8000                       # Clock period in ticks
system.cpu0.interrupts.pwrStateResidencyTicks::UNDEFINED   1590715500                       # Cumulative time (in ticks) in various power states
system.cpu0.itb.walker.pwrStateResidencyTicks::UNDEFINED   1590715500                       # Cumulative time (in ticks) in various power states
system.cpu0.workload.num_syscalls                  42                       # Number of system calls
system.cpu0.pwrStateResidencyTicks::ON     1590715500                       # Cumulative time (in ticks) in various power states
system.cpu0.numCycles                         1122142                       # number of cpu cycles simulated
system.cpu0.numWorkItemsStarted                     0                       # number of work items this cpu started
system.cpu0.numWorkItemsCompleted                   0                       # number of work items this cpu completed
system.cpu0.fetch.icacheStallCycles            256837                       # Number of cycles fetch is stalled on an Icache miss
system.cpu0.fetch.Insts                        958736                       # Number of instructions fetch has processed
system.cpu0.fetch.Branches                     272953                       # Number of branches that fetch encountered
system.cpu0.fetch.predictedBranches            119947                       # Number of branches that fetch has predicted taken
system.cpu0.fetch.Cycles                       755061                       # Number of cycles fetch has run and was not squashing or blocked
system.cpu0.fetch.SquashCycles                  17093                       # Number of cycles fetch has spent squashing
system.cpu0.fetch.TlbCycles                         2                       # Number of cycles fetch has spent waiting for tlb
system.cpu0.fetch.MiscStallCycles               12091                       # Number of cycles fetch has spent waiting on interrupts, or bad addresses, or out of MSHRs
system.cpu0.fetch.NoActiveThreadStallCycles           10                       # Number of stall cycles due to no active thread to fetch from
system.cpu0.fetch.PendingTrapStallCycles          540                       # Number of stall cycles due to pending traps
system.cpu0.fetch.PendingQuiesceStallCycles           13                       # Number of stall cycles due to pending quiesce instructions
system.cpu0.fetch.IcacheWaitRetryStallCycles         6989                       # Number of stall cycles due to full MSHR
system.cpu0.fetch.CacheLines                   228011                       # Number of cache lines fetched
system.cpu0.fetch.IcacheSquashes                 2578                       # Number of outstanding Icache misses that were squashed
system.cpu0.fetch.rateDist::samples           1040089                       # Number of instructions fetched each cycle (Total)
system.cpu0.fetch.rateDist::mean             1.793438                       # Number of instructions fetched each cycle (Total)
system.cpu0.fetch.rateDist::stdev            3.036615                       # Number of instructions fetched each cycle (Total)
system.cpu0.fetch.rateDist::underflows              0      0.00%      0.00% # Number of instructions fetched each cycle (Total)
system.cpu0.fetch.rateDist::0                  738894     71.04%     71.04% # Number of instructions fetched each cycle (Total)
system.cpu0.fetch.rateDist::1                    8272      0.80%     71.84% # Number of instructions fetched each cycle (Total)
system.cpu0.fetch.rateDist::2                    3570      0.34%     72.18% # Number of instructions fetched each cycle (Total)
system.cpu0.fetch.rateDist::3                    8403      0.81%     72.99% # Number of instructions fetched each cycle (Total)
system.cpu0.fetch.rateDist::4                   94856      9.12%     82.11% # Number of instructions fetched each cycle (Total)
system.cpu0.fetch.rateDist::5                    8159      0.78%     82.89% # Number of instructions fetched each cycle (Total)
system.cpu0.fetch.rateDist::6                    6564      0.63%     83.52% # Number of instructions fetched each cycle (Total)
system.cpu0.fetch.rateDist::7                    5857      0.56%     84.09% # Number of instructions fetched each cycle (Total)
system.cpu0.fetch.rateDist::8                  165514     15.91%    100.00% # Number of instructions fetched each cycle (Total)
system.cpu0.fetch.rateDist::overflows               0      0.00%    100.00% # Number of instructions fetched each cycle (Total)
system.cpu0.fetch.rateDist::min_value               0                       # Number of instructions fetched each cycle (Total)
system.cpu0.fetch.rateDist::max_value               8                       # Number of instructions fetched each cycle (Total)
system.cpu0.fetch.rateDist::total             1040089                       # Number of instructions fetched each cycle (Total)
system.cpu0.fetch.branchRate                 0.243243                       # Number of branch fetches per cycle
system.cpu0.fetch.rate                       0.854380                       # Number of inst fetches per cycle
system.cpu0.decode.IdleCycles                  125598                       # Number of cycles decode is idle
system.cpu0.decode.BlockedCycles               672002                       # Number of cycles decode is blocked
system.cpu0.decode.RunCycles                    87230                       # Number of cycles decode is running
system.cpu0.decode.UnblockCycles               146703                       # Number of cycles decode is unblocking
system.cpu0.decode.SquashCycles                  8546                       # Number of cycles decode is squashing
system.cpu0.decode.DecodedInsts               1784152                       # Number of instructions handled by decode
system.cpu0.rename.SquashCycles                  8546                       # Number of cycles rename is squashing
system.cpu0.rename.IdleCycles                  148350                       # Number of cycles rename is idle
system.cpu0.rename.BlockCycles                 431600                       # Number of cycles rename is blocking
system.cpu0.rename.serializeStallCycles          3675                       # count of cycles rename stalled for serializing inst
system.cpu0.rename.RunCycles                   135781                       # Number of cycles rename is running
system.cpu0.rename.UnblockCycles               312127                       # Number of cycles rename is unblocking
system.cpu0.rename.RenamedInsts               1743060                       # Number of instructions processed by rename
system.cpu0.rename.ROBFullEvents               173774                       # Number of times rename has blocked due to ROB full
system.cpu0.rename.IQFullEvents                 12610                       # Number of times rename has blocked due to IQ full
system.cpu0.rename.LQFullEvents                 67933                       # Number of times rename has blocked due to LQ full
system.cpu0.rename.SQFullEvents                 28816                       # Number of times rename has blocked due to SQ full
system.cpu0.rename.RenamedOperands            2085707                       # Number of destination operands rename has renamed
system.cpu0.rename.RenameLookups              3951986                       # Number of register rename lookups that rename has made
system.cpu0.rename.int_rename_lookups         2061211                       # Number of integer rename lookups
system.cpu0.rename.fp_rename_lookups            16831                       # Number of floating rename lookups
system.cpu0.rename.CommittedMaps              1587934                       # Number of HB maps that are committed
system.cpu0.rename.UndoneMaps                  497773                       # Number of HB maps that are undone due to squashing
system.cpu0.rename.serializingInsts                80                       # count of serializing insts renamed
system.cpu0.rename.tempSerializingInsts            82                       # count of temporary serializing insts renamed
system.cpu0.rename.skidInsts                   933316                       # count of insts added to the skid buffer
system.cpu0.memDep0.insertedLoads              260503                       # Number of loads inserted to the mem dependence unit.
system.cpu0.memDep0.insertedStores              21306                       # Number of stores inserted to the mem dependence unit.
system.cpu0.memDep0.conflictingLoads             1281                       # Number of conflicting loads.
system.cpu0.memDep0.conflictingStores             307                       # Number of conflicting stores.
system.cpu0.iq.iqInstsAdded                   1669920                       # Number of instructions added to the IQ (excludes non-spec)
system.cpu0.iq.iqNonSpecInstsAdded                131                       # Number of non-speculative instructions added to the IQ
system.cpu0.iq.iqInstsIssued                  1673314                       # Number of instructions issued
system.cpu0.iq.iqSquashedInstsIssued             6626                       # Number of squashed instructions issued
system.cpu0.iq.iqSquashedInstsExamined         330075                       # Number of squashed instructions iterated over during squash; mainly for profiling
system.cpu0.iq.iqSquashedOperandsExamined       491848                       # Number of squashed operands that are examined and possibly removed from graph
system.cpu0.iq.iqSquashedNonSpecRemoved            89                       # Number of squashed non-spec instructions that were removed
system.cpu0.iq.issued_per_cycle::samples      1040089                       # Number of insts issued each cycle
system.cpu0.iq.issued_per_cycle::mean        1.608818                       # Number of insts issued each cycle
system.cpu0.iq.issued_per_cycle::stdev       1.809319                       # Number of insts issued each cycle
system.cpu0.iq.issued_per_cycle::underflows            0      0.00%      0.00% # Number of insts issued each cycle
system.cpu0.iq.issued_per_cycle::0             400257     38.48%     38.48% # Number of insts issued each cycle
system.cpu0.iq.issued_per_cycle::1             202530     19.47%     57.96% # Number of insts issued each cycle
system.cpu0.iq.issued_per_cycle::2             144711     13.91%     71.87% # Number of insts issued each cycle
system.cpu0.iq.issued_per_cycle::3             140211     13.48%     85.35% # Number of insts issued each cycle
system.cpu0.iq.issued_per_cycle::4              80450      7.73%     93.08% # Number of insts issued each cycle
system.cpu0.iq.issued_per_cycle::5              28552      2.75%     95.83% # Number of insts issued each cycle
system.cpu0.iq.issued_per_cycle::6              19644      1.89%     97.72% # Number of insts issued each cycle
system.cpu0.iq.issued_per_cycle::7              11567      1.11%     98.83% # Number of insts issued each cycle
system.cpu0.iq.issued_per_cycle::8              12167      1.17%    100.00% # Number of insts issued each cycle
system.cpu0.iq.issued_per_cycle::overflows            0      0.00%    100.00% # Number of insts issued each cycle
system.cpu0.iq.issued_per_cycle::min_value            0                       # Number of insts issued each cycle
system.cpu0.iq.issued_per_cycle::max_value            8                       # Number of insts issued each cycle
system.cpu0.iq.issued_per_cycle::total        1040089                       # Number of insts issued each cycle
system.cpu0.iq.fu_full::No_OpClass                  0      0.00%      0.00% # attempts to use FU when none available
system.cpu0.iq.fu_full::IntAlu                   5713     24.45%     24.45% # attempts to use FU when none available
system.cpu0.iq.fu_full::IntMult                     0      0.00%     24.45% # attempts to use FU when none available
system.cpu0.iq.fu_full::IntDiv                      0      0.00%     24.45% # attempts to use FU when none available
system.cpu0.iq.fu_full::FloatAdd                   50      0.21%     24.66% # attempts to use FU when none available
system.cpu0.iq.fu_full::FloatCmp                    0      0.00%     24.66% # attempts to use FU when none available
system.cpu0.iq.fu_full::FloatCvt                    0      0.00%     24.66% # attempts to use FU when none available
system.cpu0.iq.fu_full::FloatMult                   0      0.00%     24.66% # attempts to use FU when none available
system.cpu0.iq.fu_full::FloatMultAcc                0      0.00%     24.66% # attempts to use FU when none available
system.cpu0.iq.fu_full::FloatDiv                    0      0.00%     24.66% # attempts to use FU when none available
system.cpu0.iq.fu_full::FloatMisc                   0      0.00%     24.66% # attempts to use FU when none available
system.cpu0.iq.fu_full::FloatSqrt                   0      0.00%     24.66% # attempts to use FU when none available
system.cpu0.iq.fu_full::SimdAdd                     0      0.00%     24.66% # attempts to use FU when none available
system.cpu0.iq.fu_full::SimdAddAcc                  0      0.00%     24.66% # attempts to use FU when none available
system.cpu0.iq.fu_full::SimdAlu                     0      0.00%     24.66% # attempts to use FU when none available
system.cpu0.iq.fu_full::SimdCmp                     0      0.00%     24.66% # attempts to use FU when none available
system.cpu0.iq.fu_full::SimdCvt                     0      0.00%     24.66% # attempts to use FU when none available
system.cpu0.iq.fu_full::SimdMisc                    0      0.00%     24.66% # attempts to use FU when none available
system.cpu0.iq.fu_full::SimdMult                    0      0.00%     24.66% # attempts to use FU when none available
system.cpu0.iq.fu_full::SimdMultAcc                 0      0.00%     24.66% # attempts to use FU when none available
system.cpu0.iq.fu_full::SimdShift                   0      0.00%     24.66% # attempts to use FU when none available
system.cpu0.iq.fu_full::SimdShiftAcc                0      0.00%     24.66% # attempts to use FU when none available
system.cpu0.iq.fu_full::SimdSqrt                    0      0.00%     24.66% # attempts to use FU when none available
system.cpu0.iq.fu_full::SimdFloatAdd                0      0.00%     24.66% # attempts to use FU when none available
system.cpu0.iq.fu_full::SimdFloatAlu                0      0.00%     24.66% # attempts to use FU when none available
system.cpu0.iq.fu_full::SimdFloatCmp                0      0.00%     24.66% # attempts to use FU when none available
system.cpu0.iq.fu_full::SimdFloatCvt                0      0.00%     24.66% # attempts to use FU when none available
system.cpu0.iq.fu_full::SimdFloatDiv                0      0.00%     24.66% # attempts to use FU when none available
system.cpu0.iq.fu_full::SimdFloatMisc               0      0.00%     24.66% # attempts to use FU when none available
system.cpu0.iq.fu_full::SimdFloatMult               0      0.00%     24.66% # attempts to use FU when none available
system.cpu0.iq.fu_full::SimdFloatMultAcc            0      0.00%     24.66% # attempts to use FU when none available
system.cpu0.iq.fu_full::SimdFloatSqrt               0      0.00%     24.66% # attempts to use FU when none available
system.cpu0.iq.fu_full::MemRead                 16600     71.03%     95.69% # attempts to use FU when none available
system.cpu0.iq.fu_full::MemWrite                  882      3.77%     99.47% # attempts to use FU when none available
system.cpu0.iq.fu_full::FloatMemRead               80      0.34%     99.81% # attempts to use FU when none available
system.cpu0.iq.fu_full::FloatMemWrite              45      0.19%    100.00% # attempts to use FU when none available
system.cpu0.iq.fu_full::IprAccess                   0      0.00%    100.00% # attempts to use FU when none available
system.cpu0.iq.fu_full::InstPrefetch                0      0.00%    100.00% # attempts to use FU when none available
system.cpu0.iq.FU_type_0::No_OpClass             4136      0.25%      0.25% # Type of FU issued
system.cpu0.iq.FU_type_0::IntAlu              1284771     76.78%     77.03% # Type of FU issued
system.cpu0.iq.FU_type_0::IntMult                  77      0.00%     77.03% # Type of FU issued
system.cpu0.iq.FU_type_0::IntDiv                 1323      0.08%     77.11% # Type of FU issued
system.cpu0.iq.FU_type_0::FloatAdd               4124      0.25%     77.36% # Type of FU issued
system.cpu0.iq.FU_type_0::FloatCmp                  0      0.00%     77.36% # Type of FU issued
system.cpu0.iq.FU_type_0::FloatCvt                  0      0.00%     77.36% # Type of FU issued
system.cpu0.iq.FU_type_0::FloatMult                 0      0.00%     77.36% # Type of FU issued
system.cpu0.iq.FU_type_0::FloatMultAcc              0      0.00%     77.36% # Type of FU issued
system.cpu0.iq.FU_type_0::FloatDiv                  0      0.00%     77.36% # Type of FU issued
system.cpu0.iq.FU_type_0::FloatMisc                 0      0.00%     77.36% # Type of FU issued
system.cpu0.iq.FU_type_0::FloatSqrt                 0      0.00%     77.36% # Type of FU issued
system.cpu0.iq.FU_type_0::SimdAdd                   0      0.00%     77.36% # Type of FU issued
system.cpu0.iq.FU_type_0::SimdAddAcc                0      0.00%     77.36% # Type of FU issued
system.cpu0.iq.FU_type_0::SimdAlu                   0      0.00%     77.36% # Type of FU issued
system.cpu0.iq.FU_type_0::SimdCmp                   0      0.00%     77.36% # Type of FU issued
system.cpu0.iq.FU_type_0::SimdCvt                   0      0.00%     77.36% # Type of FU issued
system.cpu0.iq.FU_type_0::SimdMisc                  0      0.00%     77.36% # Type of FU issued
system.cpu0.iq.FU_type_0::SimdMult                  0      0.00%     77.36% # Type of FU issued
system.cpu0.iq.FU_type_0::SimdMultAcc               0      0.00%     77.36% # Type of FU issued
system.cpu0.iq.FU_type_0::SimdShift                 0      0.00%     77.36% # Type of FU issued
system.cpu0.iq.FU_type_0::SimdShiftAcc              0      0.00%     77.36% # Type of FU issued
system.cpu0.iq.FU_type_0::SimdSqrt                  0      0.00%     77.36% # Type of FU issued
system.cpu0.iq.FU_type_0::SimdFloatAdd              0      0.00%     77.36% # Type of FU issued
system.cpu0.iq.FU_type_0::SimdFloatAlu              0      0.00%     77.36% # Type of FU issued
system.cpu0.iq.FU_type_0::SimdFloatCmp              0      0.00%     77.36% # Type of FU issued
system.cpu0.iq.FU_type_0::SimdFloatCvt              0      0.00%     77.36% # Type of FU issued
system.cpu0.iq.FU_type_0::SimdFloatDiv              0      0.00%     77.36% # Type of FU issued
system.cpu0.iq.FU_type_0::SimdFloatMisc             0      0.00%     77.36% # Type of FU issued
system.cpu0.iq.FU_type_0::SimdFloatMult             0      0.00%     77.36% # Type of FU issued
system.cpu0.iq.FU_type_0::SimdFloatMultAcc            0      0.00%     77.36% # Type of FU issued
system.cpu0.iq.FU_type_0::SimdFloatSqrt             0      0.00%     77.36% # Type of FU issued
system.cpu0.iq.FU_type_0::MemRead              358491     21.42%     98.78% # Type of FU issued
system.cpu0.iq.FU_type_0::MemWrite              16561      0.99%     99.77% # Type of FU issued
system.cpu0.iq.FU_type_0::FloatMemRead           3404      0.20%     99.97% # Type of FU issued
system.cpu0.iq.FU_type_0::FloatMemWrite           427      0.03%    100.00% # Type of FU issued
system.cpu0.iq.FU_type_0::IprAccess                 0      0.00%    100.00% # Type of FU issued
system.cpu0.iq.FU_type_0::InstPrefetch              0      0.00%    100.00% # Type of FU issued
system.cpu0.iq.FU_type_0::total               1673314                       # Type of FU issued
system.cpu0.iq.rate                          1.491178                       # Inst issue rate
system.cpu0.iq.fu_busy_cnt                      23370                       # FU busy when requested
system.cpu0.iq.fu_busy_rate                  0.013966                       # FU busy rate (busy events/executed inst)
system.cpu0.iq.int_inst_queue_reads           4400155                       # Number of integer instruction queue reads
system.cpu0.iq.int_inst_queue_writes          1985277                       # Number of integer instruction queue writes
system.cpu0.iq.int_inst_queue_wakeup_accesses      1523692                       # Number of integer instruction queue wakeup accesses
system.cpu0.iq.fp_inst_queue_reads              16558                       # Number of floating instruction queue reads
system.cpu0.iq.fp_inst_queue_writes             14920                       # Number of floating instruction queue writes
system.cpu0.iq.fp_inst_queue_wakeup_accesses         5956                       # Number of floating instruction queue wakeup accesses
system.cpu0.iq.int_alu_accesses               1684289                       # Number of integer alu accesses
system.cpu0.iq.fp_alu_accesses                   8259                       # Number of floating point alu accesses
system.cpu0.iew.lsq.thread0.forwLoads            2892                       # Number of loads that had data forwarded from stores
system.cpu0.iew.lsq.thread0.invAddrLoads            0                       # Number of loads ignored due to an invalid address
system.cpu0.iew.lsq.thread0.squashedLoads        45358                       # Number of loads squashed
system.cpu0.iew.lsq.thread0.ignoredResponses           21                       # Number of memory responses ignored because the instruction is squashed
system.cpu0.iew.lsq.thread0.memOrderViolation           81                       # Number of memory ordering violations
system.cpu0.iew.lsq.thread0.squashedStores        10099                       # Number of stores squashed
system.cpu0.iew.lsq.thread0.invAddrSwpfs            0                       # Number of software prefetches ignored due to an invalid address
system.cpu0.iew.lsq.thread0.blockedLoads            0                       # Number of blocked loads due to partial load-store forwarding
system.cpu0.iew.lsq.thread0.rescheduledLoads            7                       # Number of loads that were rescheduled
system.cpu0.iew.lsq.thread0.cacheBlocked       113947                       # Number of times an access to memory failed due to the cache being blocked
system.cpu0.iew.iewIdleCycles                       0                       # Number of cycles IEW is idle
system.cpu0.iew.iewSquashCycles                  8546                       # Number of cycles IEW is squashing
system.cpu0.iew.iewBlockCycles                 117804                       # Number of cycles IEW is blocking
system.cpu0.iew.iewUnblockCycles                 6705                       # Number of cycles IEW is unblocking
system.cpu0.iew.iewDispatchedInsts            1670051                       # Number of instructions dispatched to IQ
system.cpu0.iew.iewDispSquashedInsts             2238                       # Number of squashed instructions skipped by dispatch
system.cpu0.iew.iewDispLoadInsts               260503                       # Number of dispatched load instructions
system.cpu0.iew.iewDispStoreInsts               21306                       # Number of dispatched store instructions
system.cpu0.iew.iewDispNonSpecInsts                92                       # Number of dispatched non-speculative instructions
system.cpu0.iew.iewIQFullEvents                   534                       # Number of times the IQ has become full, causing a stall
system.cpu0.iew.iewLSQFullEvents                 5785                       # Number of times the LSQ has become full, causing a stall
system.cpu0.iew.memOrderViolationEvents            81                       # Number of memory order violations
system.cpu0.iew.predictedTakenIncorrect          1941                       # Number of branches that were predicted taken incorrectly
system.cpu0.iew.predictedNotTakenIncorrect         8879                       # Number of branches that were predicted not taken incorrectly
system.cpu0.iew.branchMispredicts               10820                       # Number of branch mispredicts detected at execute
system.cpu0.iew.iewExecutedInsts              1652842                       # Number of executed instructions
system.cpu0.iew.iewExecLoadInsts               355724                       # Number of load instructions executed
system.cpu0.iew.iewExecSquashedInsts            20472                       # Number of squashed instructions skipped in execute
system.cpu0.iew.exec_swp                            0                       # number of swp insts executed
system.cpu0.iew.exec_nop                            0                       # number of nop insts executed
system.cpu0.iew.exec_refs                      371749                       # number of memory reference insts executed
system.cpu0.iew.exec_branches                  223011                       # Number of branches executed
system.cpu0.iew.exec_stores                     16025                       # Number of stores executed
system.cpu0.iew.exec_rate                    1.472935                       # Inst execution rate
system.cpu0.iew.wb_sent                       1534454                       # cumulative count of insts sent to commit
system.cpu0.iew.wb_count                      1529648                       # cumulative count of insts written-back
system.cpu0.iew.wb_producers                  1155288                       # num instructions producing a value
system.cpu0.iew.wb_consumers                  1633542                       # num instructions consuming a value
system.cpu0.iew.wb_rate                      1.363150                       # insts written-back per cycle
system.cpu0.iew.wb_fanout                    0.707229                       # average fanout of values written-back
system.cpu0.commit.commitSquashedInsts         330154                       # The number of squashed insts skipped by commit
system.cpu0.commit.commitNonSpecStalls             42                       # The number of times commit has been forced to stall to communicate backwards
system.cpu0.commit.branchMispredicts             8486                       # The number of times a branch was mispredicted
system.cpu0.commit.committed_per_cycle::samples       990274                       # Number of insts commited each cycle
system.cpu0.commit.committed_per_cycle::mean     1.353137                       # Number of insts commited each cycle
system.cpu0.commit.committed_per_cycle::stdev     2.507866                       # Number of insts commited each cycle
system.cpu0.commit.committed_per_cycle::underflows            0      0.00%      0.00% # Number of insts commited each cycle
system.cpu0.commit.committed_per_cycle::0       648003     65.44%     65.44% # Number of insts commited each cycle
system.cpu0.commit.committed_per_cycle::1       109876     11.10%     76.53% # Number of insts commited each cycle
system.cpu0.commit.committed_per_cycle::2         9386      0.95%     77.48% # Number of insts commited each cycle
system.cpu0.commit.committed_per_cycle::3       103821     10.48%     87.96% # Number of insts commited each cycle
system.cpu0.commit.committed_per_cycle::4         8629      0.87%     88.84% # Number of insts commited each cycle
system.cpu0.commit.committed_per_cycle::5         4918      0.50%     89.33% # Number of insts commited each cycle
system.cpu0.commit.committed_per_cycle::6         1538      0.16%     89.49% # Number of insts commited each cycle
system.cpu0.commit.committed_per_cycle::7         1293      0.13%     89.62% # Number of insts commited each cycle
system.cpu0.commit.committed_per_cycle::8       102810     10.38%    100.00% # Number of insts commited each cycle
system.cpu0.commit.committed_per_cycle::overflows            0      0.00%    100.00% # Number of insts commited each cycle
system.cpu0.commit.committed_per_cycle::min_value            0                       # Number of insts commited each cycle
system.cpu0.commit.committed_per_cycle::max_value            8                       # Number of insts commited each cycle
system.cpu0.commit.committed_per_cycle::total       990274                       # Number of insts commited each cycle
system.cpu0.commit.committedInsts              679774                       # Number of instructions committed
system.cpu0.commit.committedOps               1339976                       # Number of ops (including micro ops) committed
system.cpu0.commit.swp_count                        0                       # Number of s/w prefetches committed
system.cpu0.commit.refs                        226352                       # Number of memory references committed
system.cpu0.commit.loads                       215145                       # Number of loads committed
system.cpu0.commit.membars                          0                       # Number of memory barriers committed
system.cpu0.commit.branches                    209521                       # Number of branches committed
system.cpu0.commit.fp_insts                      3624                       # Number of committed floating point instructions.
system.cpu0.commit.int_insts                  1336510                       # Number of committed integer instructions.
system.cpu0.commit.function_calls                 708                       # Number of function calls committed.
system.cpu0.commit.op_class_0::No_OpClass         1343      0.10%      0.10% # Class of committed instruction
system.cpu0.commit.op_class_0::IntAlu         1108599     82.73%     82.83% # Class of committed instruction
system.cpu0.commit.op_class_0::IntMult             48      0.00%     82.84% # Class of committed instruction
system.cpu0.commit.op_class_0::IntDiv            1283      0.10%     82.93% # Class of committed instruction
system.cpu0.commit.op_class_0::FloatAdd          2351      0.18%     83.11% # Class of committed instruction
system.cpu0.commit.op_class_0::FloatCmp             0      0.00%     83.11% # Class of committed instruction
system.cpu0.commit.op_class_0::FloatCvt             0      0.00%     83.11% # Class of committed instruction
system.cpu0.commit.op_class_0::FloatMult            0      0.00%     83.11% # Class of committed instruction
system.cpu0.commit.op_class_0::FloatMultAcc            0      0.00%     83.11% # Class of committed instruction
system.cpu0.commit.op_class_0::FloatDiv             0      0.00%     83.11% # Class of committed instruction
system.cpu0.commit.op_class_0::FloatMisc            0      0.00%     83.11% # Class of committed instruction
system.cpu0.commit.op_class_0::FloatSqrt            0      0.00%     83.11% # Class of committed instruction
system.cpu0.commit.op_class_0::SimdAdd              0      0.00%     83.11% # Class of committed instruction
system.cpu0.commit.op_class_0::SimdAddAcc            0      0.00%     83.11% # Class of committed instruction
system.cpu0.commit.op_class_0::SimdAlu              0      0.00%     83.11% # Class of committed instruction
system.cpu0.commit.op_class_0::SimdCmp              0      0.00%     83.11% # Class of committed instruction
system.cpu0.commit.op_class_0::SimdCvt              0      0.00%     83.11% # Class of committed instruction
system.cpu0.commit.op_class_0::SimdMisc             0      0.00%     83.11% # Class of committed instruction
system.cpu0.commit.op_class_0::SimdMult             0      0.00%     83.11% # Class of committed instruction
system.cpu0.commit.op_class_0::SimdMultAcc            0      0.00%     83.11% # Class of committed instruction
system.cpu0.commit.op_class_0::SimdShift            0      0.00%     83.11% # Class of committed instruction
system.cpu0.commit.op_class_0::SimdShiftAcc            0      0.00%     83.11% # Class of committed instruction
system.cpu0.commit.op_class_0::SimdSqrt             0      0.00%     83.11% # Class of committed instruction
system.cpu0.commit.op_class_0::SimdFloatAdd            0      0.00%     83.11% # Class of committed instruction
system.cpu0.commit.op_class_0::SimdFloatAlu            0      0.00%     83.11% # Class of committed instruction
system.cpu0.commit.op_class_0::SimdFloatCmp            0      0.00%     83.11% # Class of committed instruction
system.cpu0.commit.op_class_0::SimdFloatCvt            0      0.00%     83.11% # Class of committed instruction
system.cpu0.commit.op_class_0::SimdFloatDiv            0      0.00%     83.11% # Class of committed instruction
system.cpu0.commit.op_class_0::SimdFloatMisc            0      0.00%     83.11% # Class of committed instruction
system.cpu0.commit.op_class_0::SimdFloatMult            0      0.00%     83.11% # Class of committed instruction
system.cpu0.commit.op_class_0::SimdFloatMultAcc            0      0.00%     83.11% # Class of committed instruction
system.cpu0.commit.op_class_0::SimdFloatSqrt            0      0.00%     83.11% # Class of committed instruction
system.cpu0.commit.op_class_0::MemRead         214319     15.99%     99.10% # Class of committed instruction
system.cpu0.commit.op_class_0::MemWrite         10823      0.81%     99.91% # Class of committed instruction
system.cpu0.commit.op_class_0::FloatMemRead          826      0.06%     99.97% # Class of committed instruction
system.cpu0.commit.op_class_0::FloatMemWrite          384      0.03%    100.00% # Class of committed instruction
system.cpu0.commit.op_class_0::IprAccess            0      0.00%    100.00% # Class of committed instruction
system.cpu0.commit.op_class_0::InstPrefetch            0      0.00%    100.00% # Class of committed instruction
system.cpu0.commit.op_class_0::total          1339976                       # Class of committed instruction
system.cpu0.commit.bw_lim_events               102810                       # number cycles where commit BW limit reached
system.cpu0.rob.rob_reads                     2557581                       # The number of ROB reads
system.cpu0.rob.rob_writes                    3390679                       # The number of ROB writes
system.cpu0.timesIdled                            801                       # Number of times that the entire CPU went into an idle state and unscheduled itself
system.cpu0.idleCycles                          82053                       # Total number of cycles that the CPU has spent unscheduled due to idling
system.cpu0.committedInsts                     679774                       # Number of Instructions Simulated
system.cpu0.committedOps                      1339976                       # Number of Ops (including micro ops) Simulated
system.cpu0.cpi                              1.650757                       # CPI: Cycles Per Instruction
system.cpu0.cpi_total                        1.650757                       # CPI: Total CPI of All Threads
system.cpu0.ipc                              0.605783                       # IPC: Instructions Per Cycle
system.cpu0.ipc_total                        0.605783                       # IPC: Total IPC of All Threads
system.cpu0.int_regfile_reads                 1922892                       # number of integer regfile reads
system.cpu0.int_regfile_writes                1287269                       # number of integer regfile writes
system.cpu0.fp_regfile_reads                     8911                       # number of floating regfile reads
system.cpu0.fp_regfile_writes                    5150                       # number of floating regfile writes
system.cpu0.cc_regfile_reads                   773946                       # number of cc regfile reads
system.cpu0.cc_regfile_writes                  518262                       # number of cc regfile writes
system.cpu0.misc_regfile_reads                 929496                       # number of misc regfile reads
system.cpu1.branchPred.lookups                 410456                       # Number of BP lookups
system.cpu1.branchPred.condPredicted           410456                       # Number of conditional branches predicted
system.cpu1.branchPred.condIncorrect             8419                       # Number of conditional branches incorrect
system.cpu1.branchPred.BTBLookups              281579                       # Number of BTB lookups
system.cpu1.branchPred.BTBHits                      0                       # Number of BTB hits
system.cpu1.branchPred.BTBCorrect                   0                       # Number of correct BTB predictions (this stat may not work properly.
system.cpu1.branchPred.BTBHitPct             0.000000                       # BTB Hit Percentage
system.cpu1.branchPred.usedRAS                  19575                       # Number of times the RAS was used to get a target.
system.cpu1.branchPred.RASInCorrect               512                       # Number of incorrect RAS predictions.
system.cpu1.branchPred.indirectLookups         281579                       # Number of indirect predictor lookups.
system.cpu1.branchPred.indirectHits            195792                       # Number of indirect target hits.
system.cpu1.branchPred.indirectMisses           85787                       # Number of indirect misses.
system.cpu1.branchPredindirectMispredicted         4239                       # Number of mispredicted indirect branches.
system.cpu1.clk_domain.clock                      500                       # Clock period in ticks
system.cpu1.dtb.walker.pwrStateResidencyTicks::UNDEFINED   1590715500                       # Cumulative time (in ticks) in various power states
system.cpu1.apic_clk_domain.clock                8000                       # Clock period in ticks
system.cpu1.interrupts.pwrStateResidencyTicks::UNDEFINED   1590715500                       # Cumulative time (in ticks) in various power states
system.cpu1.itb.walker.pwrStateResidencyTicks::UNDEFINED   1590715500                       # Cumulative time (in ticks) in various power states
system.cpu1.workload.num_syscalls               17188                       # Number of system calls
system.cpu1.pwrStateResidencyTicks::ON     1590715500                       # Cumulative time (in ticks) in various power states
system.cpu1.numCycles                         2455416                       # number of cpu cycles simulated
system.cpu1.numWorkItemsStarted                     0                       # number of work items this cpu started
system.cpu1.numWorkItemsCompleted                   0                       # number of work items this cpu completed
system.cpu1.fetch.icacheStallCycles            197600                       # Number of cycles fetch is stalled on an Icache miss
system.cpu1.fetch.Insts                       1324093                       # Number of instructions fetch has processed
system.cpu1.fetch.Branches                     410456                       # Number of branches that fetch encountered
system.cpu1.fetch.predictedBranches            215367                       # Number of branches that fetch has predicted taken
system.cpu1.fetch.Cycles                      2147671                       # Number of cycles fetch has run and was not squashing or blocked
system.cpu1.fetch.SquashCycles                  17121                       # Number of cycles fetch has spent squashing
system.cpu1.fetch.MiscStallCycles               11644                       # Number of cycles fetch has spent waiting on interrupts, or bad addresses, or out of MSHRs
system.cpu1.fetch.NoActiveThreadStallCycles           10                       # Number of stall cycles due to no active thread to fetch from
system.cpu1.fetch.PendingTrapStallCycles          422                       # Number of stall cycles due to pending traps
system.cpu1.fetch.PendingQuiesceStallCycles           13                       # Number of stall cycles due to pending quiesce instructions
system.cpu1.fetch.IcacheWaitRetryStallCycles         7293                       # Number of stall cycles due to full MSHR
system.cpu1.fetch.CacheLines                   169409                       # Number of cache lines fetched
system.cpu1.fetch.IcacheSquashes                 2540                       # Number of outstanding Icache misses that were squashed
system.cpu1.fetch.rateDist::samples           2373213                       # Number of instructions fetched each cycle (Total)
system.cpu1.fetch.rateDist::mean             1.098289                       # Number of instructions fetched each cycle (Total)
system.cpu1.fetch.rateDist::stdev            2.493091                       # Number of instructions fetched each cycle (Total)
system.cpu1.fetch.rateDist::underflows              0      0.00%      0.00% # Number of instructions fetched each cycle (Total)
system.cpu1.fetch.rateDist::0                 1922814     81.02%     81.02% # Number of instructions fetched each cycle (Total)
system.cpu1.fetch.rateDist::1                   25697      1.08%     82.10% # Number of instructions fetched each cycle (Total)
system.cpu1.fetch.rateDist::2                   20967      0.88%     82.99% # Number of instructions fetched each cycle (Total)
system.cpu1.fetch.rateDist::3                   34134      1.44%     84.43% # Number of instructions fetched each cycle (Total)
system.cpu1.fetch.rateDist::4                  104364      4.40%     88.82% # Number of instructions fetched each cycle (Total)
system.cpu1.fetch.rateDist::5                    7973      0.34%     89.16% # Number of instructions fetched each cycle (Total)
system.cpu1.fetch.rateDist::6                   23721      1.00%     90.16% # Number of instructions fetched each cycle (Total)
system.cpu1.fetch.rateDist::7                   31551      1.33%     91.49% # Number of instructions fetched each cycle (Total)
system.cpu1.fetch.rateDist::8                  201992      8.51%    100.00% # Number of instructions fetched each cycle (Total)
system.cpu1.fetch.rateDist::overflows               0      0.00%    100.00% # Number of instructions fetched each cycle (Total)
system.cpu1.fetch.rateDist::min_value               0                       # Number of instructions fetched each cycle (Total)
system.cpu1.fetch.rateDist::max_value               8                       # Number of instructions fetched each cycle (Total)
system.cpu1.fetch.rateDist::total             2373213                       # Number of instructions fetched each cycle (Total)
system.cpu1.fetch.branchRate                 0.167164                       # Number of branch fetches per cycle
system.cpu1.fetch.rate                       0.539254                       # Number of inst fetches per cycle
system.cpu1.decode.IdleCycles                  143279                       # Number of cycles decode is idle
system.cpu1.decode.BlockedCycles              1873173                       # Number of cycles decode is blocked
system.cpu1.decode.RunCycles                   173026                       # Number of cycles decode is running
system.cpu1.decode.UnblockCycles               175165                       # Number of cycles decode is unblocking
system.cpu1.decode.SquashCycles                  8560                       # Number of cycles decode is squashing
system.cpu1.decode.DecodedInsts               2524615                       # Number of instructions handled by decode
system.cpu1.rename.SquashCycles                  8560                       # Number of cycles rename is squashing
system.cpu1.rename.IdleCycles                  191780                       # Number of cycles rename is idle
system.cpu1.rename.BlockCycles                 430902                       # Number of cycles rename is blocking
system.cpu1.rename.serializeStallCycles       1172112                       # count of cycles rename stalled for serializing inst
system.cpu1.rename.RunCycles                   231610                       # Number of cycles rename is running
system.cpu1.rename.UnblockCycles               338239                       # Number of cycles rename is unblocking
system.cpu1.rename.RenamedInsts               2484487                       # Number of instructions processed by rename
system.cpu1.rename.ROBFullEvents               169692                       # Number of times rename has blocked due to ROB full
system.cpu1.rename.IQFullEvents                 16799                       # Number of times rename has blocked due to IQ full
system.cpu1.rename.LQFullEvents                 67455                       # Number of times rename has blocked due to LQ full
system.cpu1.rename.SQFullEvents                 28343                       # Number of times rename has blocked due to SQ full
system.cpu1.rename.RenamedOperands            2814908                       # Number of destination operands rename has renamed
system.cpu1.rename.RenameLookups              5778349                       # Number of register rename lookups that rename has made
system.cpu1.rename.int_rename_lookups         2988557                       # Number of integer rename lookups
system.cpu1.rename.fp_rename_lookups            16395                       # Number of floating rename lookups
system.cpu1.rename.CommittedMaps              2327056                       # Number of HB maps that are committed
system.cpu1.rename.UndoneMaps                  487852                       # Number of HB maps that are undone due to squashing
system.cpu1.rename.serializingInsts             17217                       # count of serializing insts renamed
system.cpu1.rename.tempSerializingInsts         17220                       # count of temporary serializing insts renamed
system.cpu1.rename.skidInsts                  1061245                       # count of insts added to the skid buffer
system.cpu1.memDep0.insertedLoads              350635                       # Number of loads inserted to the mem dependence unit.
system.cpu1.memDep0.insertedStores              39657                       # Number of stores inserted to the mem dependence unit.
system.cpu1.memDep0.conflictingLoads             2915                       # Number of conflicting loads.
system.cpu1.memDep0.conflictingStores             663                       # Number of conflicting stores.
system.cpu1.iq.iqInstsAdded                   2394848                       # Number of instructions added to the IQ (excludes non-spec)
system.cpu1.iq.iqNonSpecInstsAdded              17262                       # Number of non-speculative instructions added to the IQ
system.cpu1.iq.iqInstsIssued                  2416707                       # Number of instructions issued
system.cpu1.iq.iqSquashedInstsIssued             6304                       # Number of squashed instructions issued
system.cpu1.iq.iqSquashedInstsExamined         324085                       # Number of squashed instructions iterated over during squash; mainly for profiling
system.cpu1.iq.iqSquashedOperandsExamined       485190                       # Number of squashed operands that are examined and possibly removed from graph
system.cpu1.iq.iqSquashedNonSpecRemoved            74                       # Number of squashed non-spec instructions that were removed
system.cpu1.iq.issued_per_cycle::samples      2373213                       # Number of insts issued each cycle
system.cpu1.iq.issued_per_cycle::mean        1.018327                       # Number of insts issued each cycle
system.cpu1.iq.issued_per_cycle::stdev       1.748446                       # Number of insts issued each cycle
system.cpu1.iq.issued_per_cycle::underflows            0      0.00%      0.00% # Number of insts issued each cycle
system.cpu1.iq.issued_per_cycle::0            1494958     62.99%     62.99% # Number of insts issued each cycle
system.cpu1.iq.issued_per_cycle::1             308434     13.00%     75.99% # Number of insts issued each cycle
system.cpu1.iq.issued_per_cycle::2             153338      6.46%     82.45% # Number of insts issued each cycle
[...]
system.ruby.L1Cache_Controller.NP.Transient_Local_GETS::total        55468                      
system.ruby.L1Cache_Controller.NP.Own_Lock_or_Unlock |         760     19.46%     19.46% |         696     17.82%     37.28% |         772     19.76%     57.04% |         727     18.61%     75.65% |         951     24.35%    100.00%
system.ruby.L1Cache_Controller.NP.Own_Lock_or_Unlock::total         3906                      
system.ruby.L1Cache_Controller.I.Load    |           1     20.00%     20.00% |           1     20.00%     40.00% |           1     20.00%     60.00% |           1     20.00%     80.00% |           1     20.00%    100.00%
system.ruby.L1Cache_Controller.I.Load::total            5                      
system.ruby.L1Cache_Controller.I.Store   |           0      0.00%      0.00% |           4     26.67%     26.67% |           3     20.00%     46.67% |           4     26.67%     73.33% |           4     26.67%    100.00%
system.ruby.L1Cache_Controller.I.Store::total           15                      
system.ruby.L1Cache_Controller.I.L1_Replacement |           0      0.00%      0.00% |           0      0.00%      0.00% |           0      0.00%      0.00% |           1    100.00%    100.00% |           0      0.00%    100.00%
system.ruby.L1Cache_Controller.I.L1_Replacement::total            1                      
system.ruby.L1Cache_Controller.S.Load    |        5072      2.38%      2.38% |       65877     30.98%     33.36% |       41334     19.44%     52.80% |      100363     47.19%     99.99% |          28      0.01%    100.00%
system.ruby.L1Cache_Controller.S.Load::total       212674                      
system.ruby.L1Cache_Controller.S.Ifetch  |        1168      0.49%      0.49% |       86709     36.51%     37.00% |       44070     18.56%     55.56% |      105533     44.44%    100.00% |           0      0.00%    100.00%
system.ruby.L1Cache_Controller.S.Ifetch::total       237480                      
system.ruby.L1Cache_Controller.S.Store   |          42     23.08%     23.08% |          39     21.43%     44.51% |          50     27.47%     71.98% |          51     28.02%    100.00% |           0      0.00%    100.00%
system.ruby.L1Cache_Controller.S.Store::total          182                      
system.ruby.L1Cache_Controller.S.L1_Replacement |         233     29.35%     29.35% |         196     24.69%     54.03% |         192     24.18%     78.21% |         173     21.79%    100.00% |           0      0.00%    100.00%
system.ruby.L1Cache_Controller.S.L1_Replacement::total          794                      
system.ruby.L1Cache_Controller.S.Transient_Local_GETX |           0      0.00%      0.00% |           0      0.00%      0.00% |           0      0.00%      0.00% |           0      0.00%      0.00% |           4    100.00%    100.00%
system.ruby.L1Cache_Controller.S.Transient_Local_GETX::total            4                      
system.ruby.L1Cache_Controller.S.Transient_Local_GETS_Last_Token |           1     25.00%     25.00% |           1     25.00%     50.00% |           1     25.00%     75.00% |           1     25.00%    100.00% |           0      0.00%    100.00%
system.ruby.L1Cache_Controller.S.Transient_Local_GETS_Last_Token::total            4                      
system.ruby.L1Cache_Controller.M.Load    |       16037     22.35%     22.35% |       16716     23.29%     45.64% |       16634     23.18%     68.82% |       20945     29.19%     98.00% |        1433      2.00%    100.00%
system.ruby.L1Cache_Controller.M.Load::total        71765                      
system.ruby.L1Cache_Controller.M.Ifetch  |      225034     47.84%     47.84% |       80877     17.19%     65.03% |       62647     13.32%     78.35% |      101839     21.65%    100.00% |           0      0.00%    100.00%
system.ruby.L1Cache_Controller.M.Ifetch::total       470397                      
system.ruby.L1Cache_Controller.M.Store   |          42     14.95%     14.95% |          44     15.66%     30.60% |          45     16.01%     46.62% |          44     15.66%     62.28% |         106     37.72%    100.00%
system.ruby.L1Cache_Controller.M.Store::total          281                      
system.ruby.L1Cache_Controller.M.L1_Replacement |        1697     24.53%     24.53% |        1736     25.09%     49.62% |        1708     24.69%     74.30% |        1778     25.70%    100.00% |           0      0.00%    100.00%
system.ruby.L1Cache_Controller.M.L1_Replacement::total         6919                      
system.ruby.L1Cache_Controller.M.Transient_Local_GETX |           0      0.00%      0.00% |           0      0.00%      0.00% |           0      0.00%      0.00% |           0      0.00%      0.00% |           1    100.00%    100.00%
system.ruby.L1Cache_Controller.M.Transient_Local_GETX::total            1                      
system.ruby.L1Cache_Controller.M.Persistent_GETX |           0      0.00%      0.00% |           0      0.00%      0.00% |           0      0.00%      0.00% |           0      0.00%      0.00% |          14    100.00%    100.00%
system.ruby.L1Cache_Controller.M.Persistent_GETX::total           14                      
system.ruby.L1Cache_Controller.M.Own_Lock_or_Unlock |         184     24.27%     24.27% |         216     28.50%     52.77% |         152     20.05%     72.82% |         190     25.07%     97.89% |          16      2.11%    100.00%
system.ruby.L1Cache_Controller.M.Own_Lock_or_Unlock::total          758                      
system.ruby.L1Cache_Controller.MM.Load   |      113032     22.54%     22.54% |      130883     26.10%     48.64% |      115580     23.05%     71.69% |      141964     28.31%    100.00% |           0      0.00%    100.00%
system.ruby.L1Cache_Controller.MM.Load::total       501459                      
system.ruby.L1Cache_Controller.MM.Store  |        8933      9.66%      9.66% |       26790     28.96%     38.62% |       17517     18.94%     57.56% |       37666     40.72%     98.28% |        1594      1.72%    100.00%
system.ruby.L1Cache_Controller.MM.Store::total        92500                      
system.ruby.L1Cache_Controller.MM.L1_Replacement |         524     24.73%     24.73% |         520     24.54%     49.27% |         533     25.15%     74.42% |         542     25.58%    100.00% |           0      0.00%    100.00%
system.ruby.L1Cache_Controller.MM.L1_Replacement::total         2119                      
system.ruby.L1Cache_Controller.MM.Transient_Local_GETX |           1     25.00%     25.00% |           1     25.00%     50.00% |           1     25.00%     75.00% |           1     25.00%    100.00% |           0      0.00%    100.00%
system.ruby.L1Cache_Controller.MM.Transient_Local_GETX::total            4                      
system.ruby.L1Cache_Controller.MM.Transient_Local_GETS |           0      0.00%      0.00% |          19     18.63%     18.63% |           4      3.92%     22.55% |          79     77.45%    100.00% |           0      0.00%    100.00%
system.ruby.L1Cache_Controller.MM.Transient_Local_GETS::total          102                      
system.ruby.L1Cache_Controller.MM.Persistent_GETS |           2     10.00%     10.00% |           5     25.00%     35.00% |           4     20.00%     55.00% |           5     25.00%     80.00% |           4     20.00%    100.00%
system.ruby.L1Cache_Controller.MM.Persistent_GETS::total           20                      
system.ruby.L1Cache_Controller.MM.Own_Lock_or_Unlock |          39     17.18%     17.18% |          68     29.96%     47.14% |          57     25.11%     72.25% |          63     27.75%    100.00% |           0      0.00%    100.00%
system.ruby.L1Cache_Controller.MM.Own_Lock_or_Unlock::total          227                      
system.ruby.L1Cache_Controller.M_W.Load  |       11099     24.94%     24.94% |       11138     25.02%     49.96% |       11016     24.75%     74.71% |       11136     25.02%     99.73% |         122      0.27%    100.00%
system.ruby.L1Cache_Controller.M_W.Load::total        44511                      
system.ruby.L1Cache_Controller.M_W.Ifetch |         437     25.57%     25.57% |         431     25.22%     50.79% |         412     24.11%     74.90% |         429     25.10%    100.00% |           0      0.00%    100.00%
system.ruby.L1Cache_Controller.M_W.Ifetch::total         1709                      
system.ruby.L1Cache_Controller.M_W.Store |          10     22.22%     22.22% |          12     26.67%     48.89% |          12     26.67%     75.56% |          11     24.44%    100.00% |           0      0.00%    100.00%
system.ruby.L1Cache_Controller.M_W.Store::total           45                      
system.ruby.L1Cache_Controller.M_W.Transient_Local_GETX |           0      0.00%      0.00% |           0      0.00%      0.00% |           0      0.00%      0.00% |           0      0.00%      0.00% |          12    100.00%    100.00%
system.ruby.L1Cache_Controller.M_W.Transient_Local_GETX::total           12                      
system.ruby.L1Cache_Controller.M_W.Own_Lock_or_Unlock |          20     18.35%     18.35% |          27     24.77%     43.12% |          24     22.02%     65.14% |          38     34.86%    100.00% |           0      0.00%    100.00%
system.ruby.L1Cache_Controller.M_W.Own_Lock_or_Unlock::total          109                      
system.ruby.L1Cache_Controller.M_W.Use_TimeoutNoStarvers |        3026     24.72%     24.72% |        3036     24.80%     49.53% |        3020     24.67%     74.20% |        3037     24.81%     99.01% |         121      0.99%    100.00%
system.ruby.L1Cache_Controller.M_W.Use_TimeoutNoStarvers::total        12240                      
system.ruby.L1Cache_Controller.MM_W.Load |          30     23.62%     23.62% |          31     24.41%     48.03% |          40     31.50%     79.53% |          26     20.47%    100.00% |           0      0.00%    100.00%
system.ruby.L1Cache_Controller.MM_W.Load::total          127                      
system.ruby.L1Cache_Controller.MM_W.Store |        2065     23.01%     23.01% |        2185     24.35%     47.36% |        2098     23.38%     70.75% |        2621     29.21%     99.96% |           4      0.04%    100.00%
system.ruby.L1Cache_Controller.MM_W.Store::total         8973                      
system.ruby.L1Cache_Controller.MM_W.Transient_Local_GETS |           1      5.26%      5.26% |           5     26.32%     31.58% |           4     21.05%     52.63% |           5     26.32%     78.95% |           4     21.05%    100.00%
system.ruby.L1Cache_Controller.MM_W.Transient_Local_GETS::total           19                      
system.ruby.L1Cache_Controller.MM_W.Own_Lock_or_Unlock |           7     19.44%     19.44% |           8     22.22%     41.67% |          11     30.56%     72.22% |          10     27.78%    100.00% |           0      0.00%    100.00%
system.ruby.L1Cache_Controller.MM_W.Own_Lock_or_Unlock::total           36                      
system.ruby.L1Cache_Controller.MM_W.Use_TimeoutNoStarvers |         571     23.72%     23.72% |         587     24.39%     48.11% |         582     24.18%     72.29% |         663     27.54%     99.83% |           4      0.17%    100.00%
system.ruby.L1Cache_Controller.MM_W.Use_TimeoutNoStarvers::total         2407                      
system.ruby.L1Cache_Controller.IM.Data_All_Tokens |         519     23.81%     23.81% |         536     24.59%     48.39% |         520     23.85%     72.25% |         601     27.57%     99.82% |           4      0.18%    100.00%
system.ruby.L1Cache_Controller.IM.Data_All_Tokens::total         2180                      
system.ruby.L1Cache_Controller.IM.Transient_Local_GETS |           1    100.00%    100.00% |           0      0.00%    100.00% |           0      0.00%    100.00% |           0      0.00%    100.00% |           0      0.00%    100.00%
system.ruby.L1Cache_Controller.IM.Transient_Local_GETS::total            1                      
system.ruby.L1Cache_Controller.IM.Own_Lock_or_Unlock |          32     16.93%     16.93% |          59     31.22%     48.15% |          46     24.34%     72.49% |          52     27.51%    100.00% |           0      0.00%    100.00%
system.ruby.L1Cache_Controller.IM.Own_Lock_or_Unlock::total          189                      
system.ruby.L1Cache_Controller.IM.Request_Timeout |         142     21.35%     21.35% |         159     23.91%     45.26% |         124     18.65%     63.91% |         240     36.09%    100.00% |           0      0.00%    100.00%
system.ruby.L1Cache_Controller.IM.Request_Timeout::total          665                      
system.ruby.L1Cache_Controller.SM.Data_All_Tokens |          42     23.08%     23.08% |          39     21.43%     44.51% |          50     27.47%     71.98% |          51     28.02%    100.00% |           0      0.00%    100.00%
system.ruby.L1Cache_Controller.SM.Data_All_Tokens::total          182                      
system.ruby.L1Cache_Controller.SM.Ack    |           1     25.00%     25.00% |           1     25.00%     50.00% |           1     25.00%     75.00% |           1     25.00%    100.00% |           0      0.00%    100.00%
system.ruby.L1Cache_Controller.SM.Ack::total            4                      
system.ruby.L1Cache_Controller.IS.Data_Shared |         425     26.19%     26.19% |         403     24.83%     51.02% |         410     25.26%     76.28% |         381     23.48%     99.75% |           4      0.25%    100.00%
system.ruby.L1Cache_Controller.IS.Data_Shared::total         1623                      
system.ruby.L1Cache_Controller.IS.Data_All_Tokens |        3036     24.71%     24.71% |        3048     24.81%     49.52% |        3032     24.68%     74.20% |        3049     24.82%     99.02% |         121      0.98%    100.00%
system.ruby.L1Cache_Controller.IS.Data_All_Tokens::total        12286                      
system.ruby.L1Cache_Controller.IS.Transient_Local_GETX |           0      0.00%      0.00% |           0      0.00%      0.00% |           0      0.00%      0.00% |           0      0.00%      0.00% |           2    100.00%    100.00%
system.ruby.L1Cache_Controller.IS.Transient_Local_GETX::total            2                      
system.ruby.L1Cache_Controller.IS.Own_Lock_or_Unlock |         164     25.19%     25.19% |         190     29.19%     54.38% |         128     19.66%     74.04% |         153     23.50%     97.54% |          16      2.46%    100.00%
system.ruby.L1Cache_Controller.IS.Own_Lock_or_Unlock::total          651                      
system.ruby.L1Cache_Controller.IS.Request_Timeout |        1596     24.44%     24.44% |        1790     27.42%     51.86% |        1456     22.30%     74.16% |        1671     25.59%     99.75% |          16      0.25%    100.00%
system.ruby.L1Cache_Controller.IS.Request_Timeout::total         6529                      
system.ruby.L1Cache_Controller.I_L.Load  |           0      0.00%      0.00% |           0      0.00%      0.00% |           0      0.00%      0.00% |           0      0.00%      0.00% |          14    100.00%    100.00%
system.ruby.L1Cache_Controller.I_L.Load::total           14                      
system.ruby.L1Cache_Controller.I_L.Store |           1    100.00%    100.00% |           0      0.00%    100.00% |           0      0.00%    100.00% |           0      0.00%    100.00% |           0      0.00%    100.00%
system.ruby.L1Cache_Controller.I_L.Store::total            1                      
system.ruby.L1Cache_Controller.I_L.Transient_Local_GETX |           0      0.00%      0.00% |           1     33.33%     33.33% |           1     33.33%     66.67% |           1     33.33%    100.00% |           0      0.00%    100.00%
system.ruby.L1Cache_Controller.I_L.Transient_Local_GETX::total            3                      
system.ruby.L1Cache_Controller.I_L.Transient_Local_GETS |          13     30.95%     30.95% |           9     21.43%     52.38% |          11     26.19%     78.57% |           9     21.43%    100.00% |           0      0.00%    100.00%
system.ruby.L1Cache_Controller.I_L.Transient_Local_GETS::total           42                      
system.ruby.L1Cache_Controller.I_L.Persistent_GETX |         186     20.99%     20.99% |         158     17.83%     38.83% |         168     18.96%     57.79% |         163     18.40%     76.19% |         211     23.81%    100.00%
system.ruby.L1Cache_Controller.I_L.Persistent_GETX::total          886                      
system.ruby.L1Cache_Controller.I_L.Persistent_GETS |         574     19.01%     19.01% |         538     17.81%     36.82% |         604     20.00%     56.82% |         564     18.68%     75.50% |         740     24.50%    100.00%
system.ruby.L1Cache_Controller.I_L.Persistent_GETS::total         3020                      
system.ruby.L1Cache_Controller.I_L.Own_Lock_or_Unlock |           1      5.26%      5.26% |           5     26.32%     31.58% |           4     21.05%     52.63% |           5     26.32%     78.95% |           4     21.05%    100.00%
system.ruby.L1Cache_Controller.I_L.Own_Lock_or_Unlock::total           19                      
system.ruby.L1Cache_Controller.IM_L.Own_Lock_or_Unlock |           1    100.00%    100.00% |           0      0.00%    100.00% |           0      0.00%    100.00% |           0      0.00%    100.00% |           0      0.00%    100.00%
system.ruby.L1Cache_Controller.IM_L.Own_Lock_or_Unlock::total            1                      
system.ruby.L1Cache_Controller.IS_L.Own_Lock_or_Unlock |           0      0.00%      0.00% |           0      0.00%      0.00% |           0      0.00%      0.00% |           0      0.00%      0.00% |          14    100.00%    100.00%
system.ruby.L1Cache_Controller.IS_L.Own_Lock_or_Unlock::total           14                      
system.ruby.L2Cache_Controller.L1_GETS          13909      0.00%      0.00%
system.ruby.L2Cache_Controller.L1_GETX           2362      0.00%      0.00%
system.ruby.L2Cache_Controller.L1_INV             145      0.00%      0.00%
system.ruby.L2Cache_Controller.Writeback_All_Tokens         9832      0.00%      0.00%
system.ruby.L2Cache_Controller.Persistent_GETX          225      0.00%      0.00%
system.ruby.L2Cache_Controller.Persistent_GETS          760      0.00%      0.00%
system.ruby.L2Cache_Controller.Own_Lock_or_Unlock          985      0.00%      0.00%
system.ruby.L2Cache_Controller.NP.L1_GETS        12268      0.00%      0.00%
system.ruby.L2Cache_Controller.NP.L1_GETX         1998      0.00%      0.00%
system.ruby.L2Cache_Controller.NP.L1_INV          103      0.00%      0.00%
system.ruby.L2Cache_Controller.NP.Writeback_All_Tokens         8863      0.00%      0.00%
system.ruby.L2Cache_Controller.NP.Own_Lock_or_Unlock          981      0.00%      0.00%
system.ruby.L2Cache_Controller.I.L1_GETS            4      0.00%      0.00%
system.ruby.L2Cache_Controller.I.L1_GETX            4      0.00%      0.00%
system.ruby.L2Cache_Controller.I.L1_INV             8      0.00%      0.00%
system.ruby.L2Cache_Controller.I.Writeback_All_Tokens          175      0.00%      0.00%
system.ruby.L2Cache_Controller.I.Persistent_GETS            4      0.00%      0.00%
system.ruby.L2Cache_Controller.O.L1_GETS            4      0.00%      0.00%
system.ruby.L2Cache_Controller.O.L1_GETX          182      0.00%      0.00%
system.ruby.L2Cache_Controller.O.Writeback_All_Tokens          794      0.00%      0.00%
system.ruby.L2Cache_Controller.M.L1_GETS         1619      0.00%      0.00%
system.ruby.L2Cache_Controller.M.L1_GETX          177      0.00%      0.00%
system.ruby.L2Cache_Controller.I_L.L1_GETS           14      0.00%      0.00%
system.ruby.L2Cache_Controller.I_L.L1_GETX            1      0.00%      0.00%
system.ruby.L2Cache_Controller.I_L.L1_INV           34      0.00%      0.00%
system.ruby.L2Cache_Controller.I_L.Persistent_GETX          225      0.00%      0.00%
system.ruby.L2Cache_Controller.I_L.Persistent_GETS          756      0.00%      0.00%
system.ruby.L2Cache_Controller.I_L.Own_Lock_or_Unlock            4      0.00%      0.00%

---------- End Simulation Statistics   ----------
