
---------- Begin Simulation Statistics ----------
sim_seconds                                  0.022059                       # Number of seconds simulated
sim_ticks                                 22059279500                       # Number of ticks simulated
final_tick                                22059279500                       # Number of ticks from beginning of simulation (restored from checkpoints and never reset)
sim_freq                                 1000000000000                       # Frequency of simulated ticks
host_inst_rate                                  50636                       # Simulator instruction rate (inst/s)
host_op_rate                                    99260                       # Simulator op (including micro ops) rate (op/s)
host_tick_rate                               21575074                       # Simulator tick rate (ticks/s)
host_mem_usage                                 850916                       # Number of bytes of host memory used
host_seconds                                  1022.44                       # Real time elapsed on the host
sim_insts                                    51771943                       # Number of instructions simulated
sim_ops                                     101487921                       # Number of ops (including micro ops) simulated
system.voltage_domain.voltage                       1                       # Voltage in Volts
system.clk_domain.clock                          1000                       # Clock period in ticks
system.mem_ctrls.pwrStateResidencyTicks::UNDEFINED  22059279500                       # Cumulative time (in ticks) in various power states
system.mem_ctrls.bytes_read::ruby.dir_cntrl0      1683520                       # Number of bytes read from this memory
system.mem_ctrls.bytes_read::total            1683520                       # Number of bytes read from this memory
system.mem_ctrls.bytes_written::ruby.dir_cntrl0         1024                       # Number of bytes written to this memory
system.mem_ctrls.bytes_written::total            1024                       # Number of bytes written to this memory
system.mem_ctrls.num_reads::ruby.dir_cntrl0        26305                       # Number of read requests responded to by this memory
system.mem_ctrls.num_reads::total               26305                       # Number of read requests responded to by this memory
system.mem_ctrls.num_writes::ruby.dir_cntrl0           16                       # Number of write requests responded to by this memory
system.mem_ctrls.num_writes::total                 16                       # Number of write requests responded to by this memory
system.mem_ctrls.bw_read::ruby.dir_cntrl0     76317996                       # Total read bandwidth from this memory (bytes/s)
system.mem_ctrls.bw_read::total              76317996                       # Total read bandwidth from this memory (bytes/s)
system.mem_ctrls.bw_write::ruby.dir_cntrl0        46420                       # Write bandwidth from this memory (bytes/s)
system.mem_ctrls.bw_write::total                46420                       # Write bandwidth from this memory (bytes/s)
system.mem_ctrls.bw_total::ruby.dir_cntrl0     76364416                       # Total bandwidth to/from this memory (bytes/s)
system.mem_ctrls.bw_total::total             76364416                       # Total bandwidth to/from this memory (bytes/s)
system.mem_ctrls.readReqs                       26305                       # Number of read requests accepted
system.mem_ctrls.avgNetLat                       0.00                       # Average network latency to DRAM controller
system.mem_ctrls.writeReqs                         16                       # Number of write requests accepted
system.mem_ctrls.readBursts                     26305                       # Number of DRAM read bursts, including those serviced by the write queue
system.mem_ctrls.writeBursts                       16                       # Number of DRAM write bursts, including those merged in the write queue
system.mem_ctrls.bytesReadDRAM                1683264                       # Total number of bytes read from DRAM
system.mem_ctrls.bytesReadWrQ                     256                       # Total number of bytes read from write queue
system.mem_ctrls.bytesWritten                       0                       # Total number of bytes written to DRAM
system.mem_ctrls.bytesReadSys                 1683520                       # Total read bytes from the system interface side
system.mem_ctrls.bytesWrittenSys                 1024                       # Total written bytes from the system interface side
system.mem_ctrls.servicedByWrQ                      4                       # Number of DRAM read bursts serviced by the write queue
system.mem_ctrls.mergedWrBursts                     0                       # Number of DRAM write bursts merged with an existing one
system.mem_ctrls.neitherReadNorWriteReqs            0                       # Number of requests that are neither read nor write
system.mem_ctrls.perBankRdBursts::0              1635                       # Per bank write bursts
system.mem_ctrls.perBankRdBursts::1              1609                       # Per bank write bursts
system.mem_ctrls.perBankRdBursts::2              1522                       # Per bank write bursts
system.mem_ctrls.perBankRdBursts::3              1391                       # Per bank write bursts
system.mem_ctrls.perBankRdBursts::4              1455                       # Per bank write bursts
system.mem_ctrls.perBankRdBursts::5              1841                       # Per bank write bursts
system.mem_ctrls.perBankRdBursts::6              1937                       # Per bank write bursts
system.mem_ctrls.perBankRdBursts::7              1721                       # Per bank write bursts
system.mem_ctrls.perBankRdBursts::8              1627                       # Per bank write bursts
system.mem_ctrls.perBankRdBursts::9              1537                       # Per bank write bursts
system.mem_ctrls.perBankRdBursts::10             1490                       # Per bank write bursts
system.mem_ctrls.perBankRdBursts::11             1651                       # Per bank write bursts
system.mem_ctrls.perBankRdBursts::12             1776                       # Per bank write bursts
system.mem_ctrls.perBankRdBursts::13             1741                       # Per bank write bursts
system.mem_ctrls.perBankRdBursts::14             1691                       # Per bank write bursts
system.mem_ctrls.perBankRdBursts::15             1677                       # Per bank write bursts
system.mem_ctrls.perBankWrBursts::0                 0                       # Per bank write bursts
system.mem_ctrls.perBankWrBursts::1                 0                       # Per bank write bursts
system.mem_ctrls.perBankWrBursts::2                 0                       # Per bank write bursts
system.mem_ctrls.perBankWrBursts::3                 0                       # Per bank write bursts
system.mem_ctrls.perBankWrBursts::4                 0                       # Per bank write bursts
system.mem_ctrls.perBankWrBursts::5                 0                       # Per bank write bursts
system.mem_ctrls.perBankWrBursts::6                 0                       # Per bank write bursts
system.mem_ctrls.perBankWrBursts::7                 0                       # Per bank write bursts
system.mem_ctrls.perBankWrBursts::8                 0                       # Per bank write bursts
system.mem_ctrls.perBankWrBursts::9                 0                       # Per bank write bursts
system.mem_ctrls.perBankWrBursts::10                0                       # Per bank write bursts
system.mem_ctrls.perBankWrBursts::11                0                       # Per bank write bursts
system.mem_ctrls.perBankWrBursts::12                0                       # Per bank write bursts
system.mem_ctrls.perBankWrBursts::13                0                       # Per bank write bursts
system.mem_ctrls.perBankWrBursts::14                0                       # Per bank write bursts
system.mem_ctrls.perBankWrBursts::15                0                       # Per bank write bursts
system.mem_ctrls.numRdRetry                         0                       # Number of times read queue was full causing retry
system.mem_ctrls.numWrRetry                         0                       # Number of times write queue was full causing retry
system.mem_ctrls.totGap                   22059214000                       # Total gap between requests
system.mem_ctrls.readPktSize::0                     0                       # Read request sizes (log2)
system.mem_ctrls.readPktSize::1                     0                       # Read request sizes (log2)
system.mem_ctrls.readPktSize::2                     0                       # Read request sizes (log2)
system.mem_ctrls.readPktSize::3                     0                       # Read request sizes (log2)
system.mem_ctrls.readPktSize::4                     0                       # Read request sizes (log2)
system.mem_ctrls.readPktSize::5                     0                       # Read request sizes (log2)
system.mem_ctrls.readPktSize::6                 26305                       # Read request sizes (log2)
system.mem_ctrls.writePktSize::0                    0                       # Write request sizes (log2)
system.mem_ctrls.writePktSize::1                    0                       # Write request sizes (log2)
system.mem_ctrls.writePktSize::2                    0                       # Write request sizes (log2)
system.mem_ctrls.writePktSize::3                    0                       # Write request sizes (log2)
system.mem_ctrls.writePktSize::4                    0                       # Write request sizes (log2)
system.mem_ctrls.writePktSize::5                    0                       # Write request sizes (log2)
system.mem_ctrls.writePktSize::6                   16                       # Write request sizes (log2)
system.mem_ctrls.rdQLenPdf::0                   13986                       # What read queue length does an incoming req see
system.mem_ctrls.rdQLenPdf::1                    2813                       # What read queue length does an incoming req see
system.mem_ctrls.rdQLenPdf::2                    2531                       # What read queue length does an incoming req see
system.mem_ctrls.rdQLenPdf::3                    1843                       # What read queue length does an incoming req see
system.mem_ctrls.rdQLenPdf::4                    1282                       # What read queue length does an incoming req see
system.mem_ctrls.rdQLenPdf::5                     967                       # What read queue length does an incoming req see
system.mem_ctrls.rdQLenPdf::6                     860                       # What read queue length does an incoming req see
system.mem_ctrls.rdQLenPdf::7                     749                       # What read queue length does an incoming req see
system.mem_ctrls.rdQLenPdf::8                     538                       # What read queue length does an incoming req see
system.mem_ctrls.rdQLenPdf::9                     334                       # What read queue length does an incoming req see
system.mem_ctrls.rdQLenPdf::10                    225                       # What read queue length does an incoming req see
system.mem_ctrls.rdQLenPdf::11                     97                       # What read queue length does an incoming req see
system.mem_ctrls.rdQLenPdf::12                     45                       # What read queue length does an incoming req see
system.mem_ctrls.rdQLenPdf::13                     19                       # What read queue length does an incoming req see
system.mem_ctrls.rdQLenPdf::14                      6                       # What read queue length does an incoming req see
system.mem_ctrls.rdQLenPdf::15                      4                       # What read queue length does an incoming req see
system.mem_ctrls.rdQLenPdf::16                      2                       # What read queue length does an incoming req see
system.mem_ctrls.rdQLenPdf::17                      0                       # What read queue length does an incoming req see
system.mem_ctrls.rdQLenPdf::18                      0                       # What read queue length does an incoming req see
system.mem_ctrls.rdQLenPdf::19                      0                       # What read queue length does an incoming req see
system.mem_ctrls.rdQLenPdf::20                      0                       # What read queue length does an incoming req see
system.mem_ctrls.rdQLenPdf::21                      0                       # What read queue length does an incoming req see
system.mem_ctrls.rdQLenPdf::22                      0                       # What read queue length does an incoming req see
system.mem_ctrls.rdQLenPdf::23                      0                       # What read queue length does an incoming req see
system.mem_ctrls.rdQLenPdf::24                      0                       # What read queue length does an incoming req see
system.mem_ctrls.rdQLenPdf::25                      0                       # What read queue length does an incoming req see
system.mem_ctrls.rdQLenPdf::26                      0                       # What read queue length does an incoming req see
system.mem_ctrls.rdQLenPdf::27                      0                       # What read queue length does an incoming req see
system.mem_ctrls.rdQLenPdf::28                      0                       # What read queue length does an incoming req see
system.mem_ctrls.rdQLenPdf::29                      0                       # What read queue length does an incoming req see
system.mem_ctrls.rdQLenPdf::30                      0                       # What read queue length does an incoming req see
system.mem_ctrls.rdQLenPdf::31                      0                       # What read queue length does an incoming req see
system.mem_ctrls.wrQLenPdf::0                       1                       # What write queue length does an incoming req see
system.mem_ctrls.wrQLenPdf::1                       1                       # What write queue length does an incoming req see
system.mem_ctrls.wrQLenPdf::2                       1                       # What write queue length does an incoming req see
system.mem_ctrls.wrQLenPdf::3                       1                       # What write queue length does an incoming req see
system.mem_ctrls.wrQLenPdf::4                       1                       # What write queue length does an incoming req see
system.mem_ctrls.wrQLenPdf::5                       1                       # What write queue length does an incoming req see
system.mem_ctrls.wrQLenPdf::6                       1                       # What write queue length does an incoming req see
system.mem_ctrls.wrQLenPdf::7                       1                       # What write queue length does an incoming req see
system.mem_ctrls.wrQLenPdf::8                       1                       # What write queue length does an incoming req see
system.mem_ctrls.wrQLenPdf::9                       1                       # What write queue length does an incoming req see
system.mem_ctrls.wrQLenPdf::10                      1                       # What write queue length does an incoming req see
system.mem_ctrls.wrQLenPdf::11                      1                       # What write queue length does an incoming req see
system.mem_ctrls.wrQLenPdf::12                      1                       # What write queue length does an incoming req see
system.mem_ctrls.wrQLenPdf::13                      1                       # What write queue length does an incoming req see
system.mem_ctrls.wrQLenPdf::14                      1                       # What write queue length does an incoming req see
system.mem_ctrls.wrQLenPdf::15                      1                       # What write queue length does an incoming req see
system.mem_ctrls.wrQLenPdf::16                      0                       # What write queue length does an incoming req see
system.mem_ctrls.wrQLenPdf::17                      0                       # What write queue length does an incoming req see
system.mem_ctrls.wrQLenPdf::18                      0                       # What write queue length does an incoming req see
system.mem_ctrls.wrQLenPdf::19                      0                       # What write queue length does an incoming req see
system.mem_ctrls.wrQLenPdf::20                      0                       # What write queue length does an incoming req see
system.mem_ctrls.wrQLenPdf::21                      0                       # What write queue length does an incoming req see
system.mem_ctrls.wrQLenPdf::22                      0                       # What write queue length does an incoming req see
system.mem_ctrls.wrQLenPdf::23                      0                       # What write queue length does an incoming req see
system.mem_ctrls.wrQLenPdf::24                      0                       # What write queue length does an incoming req see
system.mem_ctrls.wrQLenPdf::25                      0                       # What write queue length does an incoming req see
system.mem_ctrls.wrQLenPdf::26                      0                       # What write queue length does an incoming req see
system.mem_ctrls.wrQLenPdf::27                      0                       # What write queue length does an incoming req see
system.mem_ctrls.wrQLenPdf::28                      0                       # What write queue length does an incoming req see
system.mem_ctrls.wrQLenPdf::29                      0                       # What write queue length does an incoming req see
system.mem_ctrls.wrQLenPdf::30                      0                       # What write queue length does an incoming req see
system.mem_ctrls.wrQLenPdf::31                      0                       # What write queue length does an incoming req see
system.mem_ctrls.wrQLenPdf::32                      0                       # What write queue length does an incoming req see
system.mem_ctrls.wrQLenPdf::33                      0                       # What write queue length does an incoming req see
system.mem_ctrls.wrQLenPdf::34                      0                       # What write queue length does an incoming req see
system.mem_ctrls.wrQLenPdf::35                      0                       # What write queue length does an incoming req see
system.mem_ctrls.wrQLenPdf::36                      0                       # What write queue length does an incoming req see
system.mem_ctrls.wrQLenPdf::37                      0                       # What write queue length does an incoming req see
system.mem_ctrls.wrQLenPdf::38                      0                       # What write queue length does an incoming req see
system.mem_ctrls.wrQLenPdf::39                      0                       # What write queue length does an incoming req see
system.mem_ctrls.wrQLenPdf::40                      0                       # What write queue length does an incoming req see
system.mem_ctrls.wrQLenPdf::41                      0                       # What write queue length does an incoming req see
system.mem_ctrls.wrQLenPdf::42                      0                       # What write queue length does an incoming req see
system.mem_ctrls.wrQLenPdf::43                      0                       # What write queue length does an incoming req see
system.mem_ctrls.wrQLenPdf::44                      0                       # What write queue length does an incoming req see
system.mem_ctrls.wrQLenPdf::45                      0                       # What write queue length does an incoming req see
system.mem_ctrls.wrQLenPdf::46                      0                       # What write queue length does an incoming req see
system.mem_ctrls.wrQLenPdf::47                      0                       # What write queue length does an incoming req see
system.mem_ctrls.wrQLenPdf::48                      0                       # What write queue length does an incoming req see
system.mem_ctrls.wrQLenPdf::49                      0                       # What write queue length does an incoming req see
system.mem_ctrls.wrQLenPdf::50                      0                       # What write queue length does an incoming req see
system.mem_ctrls.wrQLenPdf::51                      0                       # What write queue length does an incoming req see
system.mem_ctrls.wrQLenPdf::52                      0                       # What write queue length does an incoming req see
system.mem_ctrls.wrQLenPdf::53                      0                       # What write queue length does an incoming req see
system.mem_ctrls.wrQLenPdf::54                      0                       # What write queue length does an incoming req see
system.mem_ctrls.wrQLenPdf::55                      0                       # What write queue length does an incoming req see
system.mem_ctrls.wrQLenPdf::56                      0                       # What write queue length does an incoming req see
system.mem_ctrls.wrQLenPdf::57                      0                       # What write queue length does an incoming req see
system.mem_ctrls.wrQLenPdf::58                      0                       # What write queue length does an incoming req see
system.mem_ctrls.wrQLenPdf::59                      0                       # What write queue length does an incoming req see
system.mem_ctrls.wrQLenPdf::60                      0                       # What write queue length does an incoming req see
system.mem_ctrls.wrQLenPdf::61                      0                       # What write queue length does an incoming req see
system.mem_ctrls.wrQLenPdf::62                      0                       # What write queue length does an incoming req see
system.mem_ctrls.wrQLenPdf::63                      0                       # What write queue length does an incoming req see
system.mem_ctrls.bytesPerActivate::samples         5181                       # Bytes accessed per row activation
system.mem_ctrls.bytesPerActivate::mean    324.570546                       # Bytes accessed per row activation
system.mem_ctrls.bytesPerActivate::gmean   178.536109                       # Bytes accessed per row activation
system.mem_ctrls.bytesPerActivate::stdev   352.815148                       # Bytes accessed per row activation
system.mem_ctrls.bytesPerActivate::0-127         2224     42.93%     42.93% # Bytes accessed per row activation
system.mem_ctrls.bytesPerActivate::128-255         1065     20.56%     63.48% # Bytes accessed per row activation
system.mem_ctrls.bytesPerActivate::256-383          326      6.29%     69.77% # Bytes accessed per row activation
system.mem_ctrls.bytesPerActivate::384-511          146      2.82%     72.59% # Bytes accessed per row activation
system.mem_ctrls.bytesPerActivate::512-639          123      2.37%     74.97% # Bytes accessed per row activation
system.mem_ctrls.bytesPerActivate::640-767          434      8.38%     83.34% # Bytes accessed per row activation
system.mem_ctrls.bytesPerActivate::768-895           57      1.10%     84.44% # Bytes accessed per row activation
system.mem_ctrls.bytesPerActivate::896-1023           58      1.12%     85.56% # Bytes accessed per row activation
system.mem_ctrls.bytesPerActivate::1024-1151          748     14.44%    100.00% # Bytes accessed per row activation
system.mem_ctrls.bytesPerActivate::total         5181                       # Bytes accessed per row activation
system.mem_ctrls.totQLat                    515905540                       # Total ticks spent queuing
system.mem_ctrls.totMemAccLat              1009049290                       # Total ticks spent from burst creation until serviced by the DRAM
system.mem_ctrls.totBusLat                  131505000                       # Total ticks spent in databus transfers
system.mem_ctrls.avgQLat                     19615.43                       # Average queueing delay per DRAM burst
system.mem_ctrls.avgBusLat                    5000.00                       # Average bus latency per DRAM burst
system.mem_ctrls.avgMemAccLat                38365.43                       # Average memory access latency per DRAM burst
system.mem_ctrls.avgRdBW                        76.31                       # Average DRAM read bandwidth in MiByte/s
system.mem_ctrls.avgWrBW                         0.00                       # Average achieved write bandwidth in MiByte/s
system.mem_ctrls.avgRdBWSys                     76.32                       # Average system read bandwidth in MiByte/s
system.mem_ctrls.avgWrBWSys                      0.05                       # Average system write bandwidth in MiByte/s
system.mem_ctrls.peakBW                      12800.00                       # Theoretical peak bandwidth in MiByte/s
system.mem_ctrls.busUtil                         0.60                       # Data bus utilization in percentage
system.mem_ctrls.busUtilRead                     0.60                       # Data bus utilization in percentage for reads
system.mem_ctrls.busUtilWrite                    0.00                       # Data bus utilization in percentage for writes
system.mem_ctrls.avgRdQLen                       1.03                       # Average read queue length when enqueuing
system.mem_ctrls.avgWrQLen                       4.50                       # Average write queue length when enqueuing
system.mem_ctrls.readRowHits                    21111                       # Number of row buffer hits during reads
system.mem_ctrls.writeRowHits                       0                       # Number of row buffer hits during writes
system.mem_ctrls.readRowHitRate                 80.27                       # Row buffer hit rate for reads
system.mem_ctrls.writeRowHitRate                 0.00                       # Row buffer hit rate for writes
system.mem_ctrls.avgGap                     838084.19                       # Average gap between requests
system.mem_ctrls.pageHitRate                    80.22                       # Row buffer hit rate, read and write combined
system.mem_ctrls_0.actEnergy                 17707200                       # Energy for activate commands per rank (pJ)
system.mem_ctrls_0.preEnergy                  9392625                       # Energy for precharge commands per rank (pJ)
system.mem_ctrls_0.readEnergy                93612540                       # Energy for read commands per rank (pJ)
system.mem_ctrls_0.writeEnergy                      0                       # Energy for write commands per rank (pJ)
system.mem_ctrls_0.refreshEnergy         118010880.000000                       # Energy for refresh commands per rank (pJ)
system.mem_ctrls_0.actBackEnergy            165407160                       # Energy for active background per rank (pJ)
system.mem_ctrls_0.preBackEnergy              3721920                       # Energy for precharge background per rank (pJ)
system.mem_ctrls_0.actPowerDownEnergy       471066810                       # Energy for active power-down per rank (pJ)
system.mem_ctrls_0.prePowerDownEnergy        24669600                       # Energy for precharge power-down per rank (pJ)
system.mem_ctrls_0.selfRefreshEnergy       4943705160                       # Energy for self refresh per rank (pJ)
system.mem_ctrls_0.totalEnergy             5847293895                       # Total energy per rank (pJ)
system.mem_ctrls_0.averagePower            265.071838                       # Core power per rank (mW)
system.mem_ctrls_0.totalIdleTime          21686794791                       # Total Idle time Per DRAM Rank
system.mem_ctrls_0.memoryStateTime::IDLE      2769750                       # Time in different power states
system.mem_ctrls_0.memoryStateTime::REF      49944000                       # Time in different power states
system.mem_ctrls_0.memoryStateTime::SREF  20589567000                       # Time in different power states
system.mem_ctrls_0.memoryStateTime::PRE_PDN     64244500                       # Time in different power states
system.mem_ctrls_0.memoryStateTime::ACT     319633709                       # Time in different power states
system.mem_ctrls_0.memoryStateTime::ACT_PDN   1033120541                       # Time in different power states
system.mem_ctrls_1.actEnergy                 19349400                       # Energy for activate commands per rank (pJ)
system.mem_ctrls_1.preEnergy                 10269270                       # Energy for precharge commands per rank (pJ)
system.mem_ctrls_1.readEnergy                94176600                       # Energy for read commands per rank (pJ)
system.mem_ctrls_1.writeEnergy                      0                       # Energy for write commands per rank (pJ)
system.mem_ctrls_1.refreshEnergy         116166960.000000                       # Energy for refresh commands per rank (pJ)
system.mem_ctrls_1.actBackEnergy            163530720                       # Energy for active background per rank (pJ)
system.mem_ctrls_1.preBackEnergy              3825600                       # Energy for precharge background per rank (pJ)
system.mem_ctrls_1.actPowerDownEnergy       462647340                       # Energy for active power-down per rank (pJ)
system.mem_ctrls_1.prePowerDownEnergy        23455200                       # Energy for precharge power-down per rank (pJ)
system.mem_ctrls_1.selfRefreshEnergy       4949818260                       # Energy for self refresh per rank (pJ)
system.mem_ctrls_1.totalEnergy             5843239350                       # Total energy per rank (pJ)
system.mem_ctrls_1.averagePower            264.888036                       # Core power per rank (mW)
system.mem_ctrls_1.totalIdleTime          21690643779                       # Total Idle time Per DRAM Rank
system.mem_ctrls_1.memoryStateTime::IDLE      2761250                       # Time in different power states
system.mem_ctrls_1.memoryStateTime::REF      49164000                       # Time in different power states
system.mem_ctrls_1.memoryStateTime::SREF  20615039750                       # Time in different power states
system.mem_ctrls_1.memoryStateTime::PRE_PDN     61073000                       # Time in different power states
system.mem_ctrls_1.memoryStateTime::ACT     316680221                       # Time in different power states
system.mem_ctrls_1.memoryStateTime::ACT_PDN   1014561279                       # Time in different power states
system.pwrStateResidencyTicks::UNDEFINED  22059279500                       # Cumulative time (in ticks) in various power states
system.cpu0.branchPred.lookups                2204741                       # Number of BP lookups
system.cpu0.branchPred.condPredicted          2204741                       # Number of conditional branches predicted
system.cpu0.branchPred.condIncorrect             8342                       # Number of conditional branches incorrect
system.cpu0.branchPred.BTBLookups             2183883                       # Number of BTB lookups
system.cpu0.branchPred.BTBHits                      0                       # Number of BTB hits
system.cpu0.branchPred.BTBCorrect                   0                       # Number of correct BTB predictions (this stat may not work properly.
system.cpu0.branchPred.BTBHitPct             0.000000                       # BTB Hit Percentage
system.cpu0.branchPred.usedRAS                   2355                       # Number of times the RAS was used to get a target.
system.cpu0.branchPred.RASInCorrect               491                       # Number of incorrect RAS predictions.
system.cpu0.branchPred.indirectLookups        2183883                       # Number of indirect predictor lookups.
system.cpu0.branchPred.indirectHits           1084673                       # Number of indirect target hits.
system.cpu0.branchPred.indirectMisses         1099210                       # Number of indirect misses.
system.cpu0.branchPredindirectMispredicted         4162                       # Number of mispredicted indirect branches.
system.cpu_voltage_domain.voltage                   1                       # Voltage in Volts
system.cpu0.clk_domain.clock                      500                       # Clock period in ticks
system.cpu0.dtb.walker.pwrStateResidencyTicks::UNDEFINED  22059279500                       # Cumulative time (in ticks) in various power states
system.cpu0.apic_clk_domain.clock                8000                       # Clock period in ticks
system.cpu0.interrupts.pwrStateResidencyTicks::UNDEFINED  22059279500                       # Cumulative time (in ticks) in various power states
system.cpu0.itb.walker.pwrStateResidencyTicks::UNDEFINED  22059279500                       # Cumulative time (in ticks) in various power states
system.cpu0.workload.num_syscalls                  42                       # Number of system calls
system.cpu0.pwrStateResidencyTicks::ON    22059279500                       # Cumulative time (in ticks) in various power states
system.cpu0.numCycles                         8149277                       # number of cpu cycles simulated
system.cpu0.numWorkItemsStarted                     0                       # number of work items this cpu started
system.cpu0.numWorkItemsCompleted                   0                       # number of work items this cpu completed
system.cpu0.fetch.icacheStallCycles           2192344                       # Number of cycles fetch is stalled on an Icache miss
system.cpu0.fetch.Insts                       6781556                       # Number of instructions fetch has processed
system.cpu0.fetch.Branches                    2204741                       # Number of branches that fetch encountered
system.cpu0.fetch.predictedBranches           1087028                       # Number of branches that fetch has predicted taken
system.cpu0.fetch.Cycles                      5855688                       # Number of cycles fetch has run and was not squashing or blocked
system.cpu0.fetch.SquashCycles                  16899                       # Number of cycles fetch has spent squashing
system.cpu0.fetch.MiscStallCycles                9920                       # Number of cycles fetch has spent waiting on interrupts, or bad addresses, or out of MSHRs
system.cpu0.fetch.NoActiveThreadStallCycles           10                       # Number of stall cycles due to no active thread to fetch from
system.cpu0.fetch.PendingTrapStallCycles          387                       # Number of stall cycles due to pending traps
system.cpu0.fetch.PendingQuiesceStallCycles           13                       # Number of stall cycles due to pending quiesce instructions
system.cpu0.fetch.IcacheWaitRetryStallCycles         6319                       # Number of stall cycles due to full MSHR
system.cpu0.fetch.CacheLines                  2163114                       # Number of cache lines fetched
system.cpu0.fetch.IcacheSquashes                 2612                       # Number of outstanding Icache misses that were squashed
system.cpu0.fetch.rateDist::samples           8073130                       # Number of instructions fetched each cycle (Total)
system.cpu0.fetch.rateDist::mean             1.671113                       # Number of instructions fetched each cycle (Total)
system.cpu0.fetch.rateDist::stdev            2.900070                       # Number of instructions fetched each cycle (Total)
system.cpu0.fetch.rateDist::underflows              0      0.00%      0.00% # Number of instructions fetched each cycle (Total)
system.cpu0.fetch.rateDist::0                 5833718     72.26%     72.26% # Number of instructions fetched each cycle (Total)
system.cpu0.fetch.rateDist::1                    8893      0.11%     72.37% # Number of instructions fetched each cycle (Total)
system.cpu0.fetch.rateDist::2                    3687      0.05%     72.42% # Number of instructions fetched each cycle (Total)
system.cpu0.fetch.rateDist::3                    9703      0.12%     72.54% # Number of instructions fetched each cycle (Total)
system.cpu0.fetch.rateDist::4                 1062064     13.16%     85.69% # Number of instructions fetched each cycle (Total)
system.cpu0.fetch.rateDist::5                    7957      0.10%     85.79% # Number of instructions fetched each cycle (Total)
system.cpu0.fetch.rateDist::6                    6579      0.08%     85.87% # Number of instructions fetched each cycle (Total)
system.cpu0.fetch.rateDist::7                    6009      0.07%     85.95% # Number of instructions fetched each cycle (Total)
system.cpu0.fetch.rateDist::8                 1134520     14.05%    100.00% # Number of instructions fetched each cycle (Total)
system.cpu0.fetch.rateDist::overflows               0      0.00%    100.00% # Number of instructions fetched each cycle (Total)
system.cpu0.fetch.rateDist::min_value               0                       # Number of instructions fetched each cycle (Total)
system.cpu0.fetch.rateDist::max_value               8                       # Number of instructions fetched each cycle (Total)
system.cpu0.fetch.rateDist::total             8073130                       # Number of instructions fetched each cycle (Total)
system.cpu0.fetch.branchRate                 0.270544                       # Number of branch fetches per cycle
system.cpu0.fetch.rate                       0.832167                       # Number of inst fetches per cycle
system.cpu0.decode.IdleCycles                  607808                       # Number of cycles decode is idle
system.cpu0.decode.BlockedCycles              5768831                       # Number of cycles decode is blocked
system.cpu0.decode.RunCycles                    89465                       # Number of cycles decode is running
system.cpu0.decode.UnblockCycles              1598567                       # Number of cycles decode is unblocking
system.cpu0.decode.SquashCycles                  8449                       # Number of cycles decode is squashing
system.cpu0.decode.DecodedInsts              13412924                       # Number of instructions handled by decode
system.cpu0.rename.SquashCycles                  8449                       # Number of cycles rename is squashing
system.cpu0.rename.IdleCycles                  789858                       # Number of cycles rename is idle
system.cpu0.rename.BlockCycles                3433539                       # Number of cycles rename is blocking
system.cpu0.rename.serializeStallCycles          3654                       # count of cycles rename stalled for serializing inst
system.cpu0.rename.RunCycles                   634691                       # Number of cycles rename is running
system.cpu0.rename.UnblockCycles              3202929                       # Number of cycles rename is unblocking
system.cpu0.rename.RenamedInsts              13373257                       # Number of instructions processed by rename
system.cpu0.rename.ROBFullEvents              2016323                       # Number of times rename has blocked due to ROB full
system.cpu0.rename.IQFullEvents                 16114                       # Number of times rename has blocked due to IQ full
system.cpu0.rename.LQFullEvents                789526                       # Number of times rename has blocked due to LQ full
system.cpu0.rename.SQFullEvents                 34524                       # Number of times rename has blocked due to SQ full
system.cpu0.rename.RenamedOperands           15663207                       # Number of destination operands rename has renamed
system.cpu0.rename.RenameLookups             28185324                       # Number of register rename lookups that rename has made
system.cpu0.rename.int_rename_lookups        13724198                       # Number of integer rename lookups
system.cpu0.rename.fp_rename_lookups            17015                       # Number of floating rename lookups
system.cpu0.rename.CommittedMaps             15177971                       # Number of HB maps that are committed
system.cpu0.rename.UndoneMaps                  485236                       # Number of HB maps that are undone due to squashing
system.cpu0.rename.serializingInsts                73                       # count of serializing insts renamed
system.cpu0.rename.tempSerializingInsts            76                       # count of temporary serializing insts renamed
system.cpu0.rename.skidInsts                 10511975                       # count of insts added to the skid buffer
system.cpu0.memDep0.insertedLoads             2203950                       # Number of loads inserted to the mem dependence unit.
system.cpu0.memDep0.insertedStores              23329                       # Number of stores inserted to the mem dependence unit.
system.cpu0.memDep0.conflictingLoads             8582                       # Number of conflicting loads.
system.cpu0.memDep0.conflictingStores            1845                       # Number of conflicting stores.
system.cpu0.iq.iqInstsAdded                  13301283                       # Number of instructions added to the IQ (excludes non-spec)
system.cpu0.iq.iqNonSpecInstsAdded                125                       # Number of non-speculative instructions added to the IQ
system.cpu0.iq.iqInstsIssued                 13307139                       # Number of instructions issued
system.cpu0.iq.iqSquashedInstsIssued             6401                       # Number of squashed instructions issued
system.cpu0.iq.iqSquashedInstsExamined         320989                       # Number of squashed instructions iterated over during squash; mainly for profiling
system.cpu0.iq.iqSquashedOperandsExamined       478529                       # Number of squashed operands that are examined and possibly removed from graph
system.cpu0.iq.iqSquashedNonSpecRemoved            83                       # Number of squashed non-spec instructions that were removed
system.cpu0.iq.issued_per_cycle::samples      8073130                       # Number of insts issued each cycle
system.cpu0.iq.issued_per_cycle::mean        1.648325                       # Number of insts issued each cycle
system.cpu0.iq.issued_per_cycle::stdev       1.386710                       # Number of insts issued each cycle
system.cpu0.iq.issued_per_cycle::underflows            0      0.00%      0.00% # Number of insts issued each cycle
system.cpu0.iq.issued_per_cycle::0            2017182     24.99%     24.99% # Number of insts issued each cycle
system.cpu0.iq.issued_per_cycle::1            2179131     26.99%     51.98% # Number of insts issued each cycle
system.cpu0.iq.issued_per_cycle::2            1580548     19.58%     71.56% # Number of insts issued each cycle
system.cpu0.iq.issued_per_cycle::3            1456927     18.05%     89.60% # Number of insts issued each cycle
system.cpu0.iq.issued_per_cycle::4             685812      8.49%     98.10% # Number of insts issued each cycle
system.cpu0.iq.issued_per_cycle::5             104319      1.29%     99.39% # Number of insts issued each cycle
system.cpu0.iq.issued_per_cycle::6              25345      0.31%     99.70% # Number of insts issued each cycle
system.cpu0.iq.issued_per_cycle::7              11710      0.15%     99.85% # Number of insts issued each cycle
system.cpu0.iq.issued_per_cycle::8              12156      0.15%    100.00% # Number of insts issued each cycle
system.cpu0.iq.issued_per_cycle::overflows            0      0.00%    100.00% # Number of insts issued each cycle
system.cpu0.iq.issued_per_cycle::min_value            0                       # Number of insts issued each cycle
system.cpu0.iq.issued_per_cycle::max_value            8                       # Number of insts issued each cycle
system.cpu0.iq.issued_per_cycle::total        8073130                       # Number of insts issued each cycle
system.cpu0.iq.fu_full::No_OpClass                  0      0.00%      0.00% # attempts to use FU when none available
system.cpu0.iq.fu_full::IntAlu                   5443     22.65%     22.65% # attempts to use FU when none available
system.cpu0.iq.fu_full::IntMult                     0      0.00%     22.65% # attempts to use FU when none available
system.cpu0.iq.fu_full::IntDiv                      0      0.00%     22.65% # attempts to use FU when none available
system.cpu0.iq.fu_full::FloatAdd                   41      0.17%     22.82% # attempts to use FU when none available
system.cpu0.iq.fu_full::FloatCmp                    0      0.00%     22.82% # attempts to use FU when none available
system.cpu0.iq.fu_full::FloatCvt                    0      0.00%     22.82% # attempts to use FU when none available
system.cpu0.iq.fu_full::FloatMult                   0      0.00%     22.82% # attempts to use FU when none available
system.cpu0.iq.fu_full::FloatMultAcc                0      0.00%     22.82% # attempts to use FU when none available
system.cpu0.iq.fu_full::FloatDiv                    0      0.00%     22.82% # attempts to use FU when none available
system.cpu0.iq.fu_full::FloatMisc                   0      0.00%     22.82% # attempts to use FU when none available
system.cpu0.iq.fu_full::FloatSqrt                   0      0.00%     22.82% # attempts to use FU when none available
system.cpu0.iq.fu_full::SimdAdd                     0      0.00%     22.82% # attempts to use FU when none available
system.cpu0.iq.fu_full::SimdAddAcc                  0      0.00%     22.82% # attempts to use FU when none available
system.cpu0.iq.fu_full::SimdAlu                     0      0.00%     22.82% # attempts to use FU when none available
system.cpu0.iq.fu_full::SimdCmp                     0      0.00%     22.82% # attempts to use FU when none available
system.cpu0.iq.fu_full::SimdCvt                     0      0.00%     22.82% # attempts to use FU when none available
system.cpu0.iq.fu_full::SimdMisc                    0      0.00%     22.82% # attempts to use FU when none available
system.cpu0.iq.fu_full::SimdMult                    0      0.00%     22.82% # attempts to use FU when none available
system.cpu0.iq.fu_full::SimdMultAcc                 0      0.00%     22.82% # attempts to use FU when none available
system.cpu0.iq.fu_full::SimdShift                   0      0.00%     22.82% # attempts to use FU when none available
system.cpu0.iq.fu_full::SimdShiftAcc                0      0.00%     22.82% # attempts to use FU when none available
system.cpu0.iq.fu_full::SimdSqrt                    0      0.00%     22.82% # attempts to use FU when none available
system.cpu0.iq.fu_full::SimdFloatAdd                0      0.00%     22.82% # attempts to use FU when none available
system.cpu0.iq.fu_full::SimdFloatAlu                0      0.00%     22.82% # attempts to use FU when none available
system.cpu0.iq.fu_full::SimdFloatCmp                0      0.00%     22.82% # attempts to use FU when none available
system.cpu0.iq.fu_full::SimdFloatCvt                0      0.00%     22.82% # attempts to use FU when none available
system.cpu0.iq.fu_full::SimdFloatDiv                0      0.00%     22.82% # attempts to use FU when none available
system.cpu0.iq.fu_full::SimdFloatMisc               0      0.00%     22.82% # attempts to use FU when none available
system.cpu0.iq.fu_full::SimdFloatMult               0      0.00%     22.82% # attempts to use FU when none available
system.cpu0.iq.fu_full::SimdFloatMultAcc            0      0.00%     22.82% # attempts to use FU when none available
system.cpu0.iq.fu_full::SimdFloatSqrt               0      0.00%     22.82% # attempts to use FU when none available
system.cpu0.iq.fu_full::MemRead                 17704     73.67%     96.50% # attempts to use FU when none available
system.cpu0.iq.fu_full::MemWrite                  727      3.03%     99.52% # attempts to use FU when none available
system.cpu0.iq.fu_full::FloatMemRead               74      0.31%     99.83% # attempts to use FU when none available
system.cpu0.iq.fu_full::FloatMemWrite              41      0.17%    100.00% # attempts to use FU when none available
system.cpu0.iq.fu_full::IprAccess                   0      0.00%    100.00% # attempts to use FU when none available
system.cpu0.iq.fu_full::InstPrefetch                0      0.00%    100.00% # attempts to use FU when none available
system.cpu0.iq.FU_type_0::No_OpClass             3937      0.03%      0.03% # Type of FU issued
system.cpu0.iq.FU_type_0::IntAlu             10970813     82.44%     82.47% # Type of FU issued
system.cpu0.iq.FU_type_0::IntMult                1901      0.01%     82.49% # Type of FU issued
system.cpu0.iq.FU_type_0::IntDiv                 1213      0.01%     82.50% # Type of FU issued
system.cpu0.iq.FU_type_0::FloatAdd               4085      0.03%     82.53% # Type of FU issued
system.cpu0.iq.FU_type_0::FloatCmp                  0      0.00%     82.53% # Type of FU issued
system.cpu0.iq.FU_type_0::FloatCvt                  0      0.00%     82.53% # Type of FU issued
system.cpu0.iq.FU_type_0::FloatMult                 0      0.00%     82.53% # Type of FU issued
system.cpu0.iq.FU_type_0::FloatMultAcc              0      0.00%     82.53% # Type of FU issued
system.cpu0.iq.FU_type_0::FloatDiv                  0      0.00%     82.53% # Type of FU issued
system.cpu0.iq.FU_type_0::FloatMisc                 0      0.00%     82.53% # Type of FU issued
system.cpu0.iq.FU_type_0::FloatSqrt                 0      0.00%     82.53% # Type of FU issued
system.cpu0.iq.FU_type_0::SimdAdd                   0      0.00%     82.53% # Type of FU issued
system.cpu0.iq.FU_type_0::SimdAddAcc                0      0.00%     82.53% # Type of FU issued
system.cpu0.iq.FU_type_0::SimdAlu                   0      0.00%     82.53% # Type of FU issued
system.cpu0.iq.FU_type_0::SimdCmp                   0      0.00%     82.53% # Type of FU issued
system.cpu0.iq.FU_type_0::SimdCvt                   0      0.00%     82.53% # Type of FU issued
system.cpu0.iq.FU_type_0::SimdMisc                  0      0.00%     82.53% # Type of FU issued
system.cpu0.iq.FU_type_0::SimdMult                  0      0.00%     82.53% # Type of FU issued
system.cpu0.iq.FU_type_0::SimdMultAcc               0      0.00%     82.53% # Type of FU issued
system.cpu0.iq.FU_type_0::SimdShift                 0      0.00%     82.53% # Type of FU issued
system.cpu0.iq.FU_type_0::SimdShiftAcc              0      0.00%     82.53% # Type of FU issued
system.cpu0.iq.FU_type_0::SimdSqrt                  0      0.00%     82.53% # Type of FU issued
system.cpu0.iq.FU_type_0::SimdFloatAdd              0      0.00%     82.53% # Type of FU issued
system.cpu0.iq.FU_type_0::SimdFloatAlu              0      0.00%     82.53% # Type of FU issued
system.cpu0.iq.FU_type_0::SimdFloatCmp              0      0.00%     82.53% # Type of FU issued
system.cpu0.iq.FU_type_0::SimdFloatCvt              0      0.00%     82.53% # Type of FU issued
system.cpu0.iq.FU_type_0::SimdFloatDiv              0      0.00%     82.53% # Type of FU issued
system.cpu0.iq.FU_type_0::SimdFloatMisc             0      0.00%     82.53% # Type of FU issued
system.cpu0.iq.FU_type_0::SimdFloatMult             0      0.00%     82.53% # Type of FU issued
system.cpu0.iq.FU_type_0::SimdFloatMultAcc            0      0.00%     82.53% # Type of FU issued
system.cpu0.iq.FU_type_0::SimdFloatSqrt             0      0.00%     82.53% # Type of FU issued
system.cpu0.iq.FU_type_0::MemRead             2302513     17.30%     99.83% # Type of FU issued
system.cpu0.iq.FU_type_0::MemWrite              18563      0.14%     99.97% # Type of FU issued
system.cpu0.iq.FU_type_0::FloatMemRead           3698      0.03%    100.00% # Type of FU issued
system.cpu0.iq.FU_type_0::FloatMemWrite           416      0.00%    100.00% # Type of FU issued
system.cpu0.iq.FU_type_0::IprAccess                 0      0.00%    100.00% # Type of FU issued
system.cpu0.iq.FU_type_0::InstPrefetch              0      0.00%    100.00% # Type of FU issued
system.cpu0.iq.FU_type_0::total              13307139                       # Type of FU issued
system.cpu0.iq.rate                          1.632923                       # Inst issue rate
system.cpu0.iq.fu_busy_cnt                      24030                       # FU busy when requested
system.cpu0.iq.fu_busy_rate                  0.001806                       # FU busy rate (busy events/executed inst)
system.cpu0.iq.int_inst_queue_reads          34700791                       # Number of integer instruction queue reads
system.cpu0.iq.int_inst_queue_writes         13607386                       # Number of integer instruction queue writes
system.cpu0.iq.int_inst_queue_wakeup_accesses     13157578                       # Number of integer instruction queue wakeup accesses
system.cpu0.iq.fp_inst_queue_reads              17048                       # Number of floating instruction queue reads
system.cpu0.iq.fp_inst_queue_writes             15114                       # Number of floating instruction queue writes
system.cpu0.iq.fp_inst_queue_wakeup_accesses         5894                       # Number of floating instruction queue wakeup accesses
system.cpu0.iq.int_alu_accesses              13318752                       # Number of integer alu accesses
system.cpu0.iq.fp_alu_accesses                   8480                       # Number of floating point alu accesses
system.cpu0.iew.lsq.thread0.forwLoads            8109                       # Number of loads that had data forwarded from stores
system.cpu0.iew.lsq.thread0.invAddrLoads            0                       # Number of loads ignored due to an invalid address
system.cpu0.iew.lsq.thread0.squashedLoads        44853                       # Number of loads squashed
system.cpu0.iew.lsq.thread0.ignoredResponses           25                       # Number of memory responses ignored because the instruction is squashed
system.cpu0.iew.lsq.thread0.memOrderViolation          109                       # Number of memory ordering violations
system.cpu0.iew.lsq.thread0.squashedStores         9719                       # Number of stores squashed
system.cpu0.iew.lsq.thread0.invAddrSwpfs            0                       # Number of software prefetches ignored due to an invalid address
system.cpu0.iew.lsq.thread0.blockedLoads            0                       # Number of blocked loads due to partial load-store forwarding
system.cpu0.iew.lsq.thread0.rescheduledLoads            6                       # Number of loads that were rescheduled
system.cpu0.iew.lsq.thread0.cacheBlocked       115002                       # Number of times an access to memory failed due to the cache being blocked
system.cpu0.iew.iewIdleCycles                       0                       # Number of cycles IEW is idle
system.cpu0.iew.iewSquashCycles                  8449                       # Number of cycles IEW is squashing
system.cpu0.iew.iewBlockCycles                 111043                       # Number of cycles IEW is blocking
system.cpu0.iew.iewUnblockCycles                 6317                       # Number of cycles IEW is unblocking
system.cpu0.iew.iewDispatchedInsts           13301408                       # Number of instructions dispatched to IQ
system.cpu0.iew.iewDispSquashedInsts             2150                       # Number of squashed instructions skipped by dispatch
system.cpu0.iew.iewDispLoadInsts              2203950                       # Number of dispatched load instructions
system.cpu0.iew.iewDispStoreInsts               23329                       # Number of dispatched store instructions
system.cpu0.iew.iewDispNonSpecInsts                85                       # Number of dispatched non-speculative instructions
system.cpu0.iew.iewIQFullEvents                   537                       # Number of times the IQ has become full, causing a stall
system.cpu0.iew.iewLSQFullEvents                 5410                       # Number of times the LSQ has become full, causing a stall
system.cpu0.iew.memOrderViolationEvents           109                       # Number of memory order violations
system.cpu0.iew.predictedTakenIncorrect          2065                       # Number of branches that were predicted taken incorrectly
system.cpu0.iew.predictedNotTakenIncorrect         8531                       # Number of branches that were predicted not taken incorrectly
system.cpu0.iew.branchMispredicts               10596                       # Number of branch mispredicts detected at execute
system.cpu0.iew.iewExecutedInsts             13287372                       # Number of executed instructions
system.cpu0.iew.iewExecLoadInsts              2300276                       # Number of load instructions executed
system.cpu0.iew.iewExecSquashedInsts            19767                       # Number of squashed instructions skipped in execute
system.cpu0.iew.exec_swp                            0                       # number of swp insts executed
system.cpu0.iew.exec_nop                            0                       # number of nop insts executed
system.cpu0.iew.exec_refs                     2318356                       # number of memory reference insts executed
system.cpu0.iew.exec_branches                 2156889                       # Number of branches executed
system.cpu0.iew.exec_stores                     18080                       # Number of stores executed
system.cpu0.iew.exec_rate                    1.630497                       # Inst execution rate
system.cpu0.iew.wb_sent                      13168155                       # cumulative count of insts sent to commit
system.cpu0.iew.wb_count                     13163472                       # cumulative count of insts written-back
system.cpu0.iew.wb_producers                  9770173                       # num instructions producing a value
system.cpu0.iew.wb_consumers                 13051657                       # num instructions consuming a value
system.cpu0.iew.wb_rate                      1.615293                       # insts written-back per cycle
system.cpu0.iew.wb_fanout                    0.748577                       # average fanout of values written-back
system.cpu0.commit.commitSquashedInsts         321064                       # The number of squashed insts skipped by commit
system.cpu0.commit.commitNonSpecStalls             42                       # The number of times commit has been forced to stall to communicate backwards
system.cpu0.commit.branchMispredicts             8360                       # The number of times a branch was mispredicted
system.cpu0.commit.committed_per_cycle::samples      8024504                       # Number of insts commited each cycle
system.cpu0.commit.committed_per_cycle::mean     1.617598                       # Number of insts commited each cycle
system.cpu0.commit.committed_per_cycle::stdev     2.706938                       # Number of insts commited each cycle
system.cpu0.commit.committed_per_cycle::underflows            0      0.00%      0.00% # Number of insts commited each cycle
system.cpu0.commit.committed_per_cycle::0      4770450     59.45%     59.45% # Number of insts commited each cycle
system.cpu0.commit.committed_per_cycle::1      1080535     13.47%     72.91% # Number of insts commited each cycle
system.cpu0.commit.committed_per_cycle::2        11670      0.15%     73.06% # Number of insts commited each cycle
system.cpu0.commit.committed_per_cycle::3      1071803     13.36%     86.42% # Number of insts commited each cycle
system.cpu0.commit.committed_per_cycle::4         9056      0.11%     86.53% # Number of insts commited each cycle
system.cpu0.commit.committed_per_cycle::5         6179      0.08%     86.61% # Number of insts commited each cycle
system.cpu0.commit.committed_per_cycle::6         1555      0.02%     86.63% # Number of insts commited each cycle
system.cpu0.commit.committed_per_cycle::7         1362      0.02%     86.64% # Number of insts commited each cycle
system.cpu0.commit.committed_per_cycle::8      1071894     13.36%    100.00% # Number of insts commited each cycle
system.cpu0.commit.committed_per_cycle::overflows            0      0.00%    100.00% # Number of insts commited each cycle
system.cpu0.commit.committed_per_cycle::min_value            0                       # Number of insts commited each cycle
system.cpu0.commit.committed_per_cycle::max_value            8                       # Number of insts commited each cycle
system.cpu0.commit.committed_per_cycle::total      8024504                       # Number of insts commited each cycle
system.cpu0.commit.committedInsts             6509185                       # Number of instructions committed
system.cpu0.commit.committedOps              12980419                       # Number of ops (including micro ops) committed
system.cpu0.commit.swp_count                        0                       # Number of s/w prefetches committed
system.cpu0.commit.refs                       2172707                       # Number of memory references committed
system.cpu0.commit.loads                      2159097                       # Number of loads committed
system.cpu0.commit.membars                          0                       # Number of memory barriers committed
system.cpu0.commit.branches                   2143896                       # Number of branches committed
system.cpu0.commit.fp_insts                      3624                       # Number of committed floating point instructions.
system.cpu0.commit.int_insts                 12976969                       # Number of committed integer instructions.
system.cpu0.commit.function_calls                 708                       # Number of function calls committed.
system.cpu0.commit.op_class_0::No_OpClass         1327      0.01%      0.01% # Class of committed instruction
system.cpu0.commit.op_class_0::IntAlu        10801031     83.21%     83.22% # Class of committed instruction
system.cpu0.commit.op_class_0::IntMult           1832      0.01%     83.23% # Class of committed instruction
system.cpu0.commit.op_class_0::IntDiv            1171      0.01%     83.24% # Class of committed instruction
system.cpu0.commit.op_class_0::FloatAdd          2351      0.02%     83.26% # Class of committed instruction
system.cpu0.commit.op_class_0::FloatCmp             0      0.00%     83.26% # Class of committed instruction
system.cpu0.commit.op_class_0::FloatCvt             0      0.00%     83.26% # Class of committed instruction
system.cpu0.commit.op_class_0::FloatMult            0      0.00%     83.26% # Class of committed instruction
system.cpu0.commit.op_class_0::FloatMultAcc            0      0.00%     83.26% # Class of committed instruction
system.cpu0.commit.op_class_0::FloatDiv             0      0.00%     83.26% # Class of committed instruction
system.cpu0.commit.op_class_0::FloatMisc            0      0.00%     83.26% # Class of committed instruction
system.cpu0.commit.op_class_0::FloatSqrt            0      0.00%     83.26% # Class of committed instruction
system.cpu0.commit.op_class_0::SimdAdd              0      0.00%     83.26% # Class of committed instruction
system.cpu0.commit.op_class_0::SimdAddAcc            0      0.00%     83.26% # Class of committed instruction
system.cpu0.commit.op_class_0::SimdAlu              0      0.00%     83.26% # Class of committed instruction
system.cpu0.commit.op_class_0::SimdCmp              0      0.00%     83.26% # Class of committed instruction
system.cpu0.commit.op_class_0::SimdCvt              0      0.00%     83.26% # Class of committed instruction
system.cpu0.commit.op_class_0::SimdMisc             0      0.00%     83.26% # Class of committed instruction
system.cpu0.commit.op_class_0::SimdMult             0      0.00%     83.26% # Class of committed instruction
system.cpu0.commit.op_class_0::SimdMultAcc            0      0.00%     83.26% # Class of committed instruction
system.cpu0.commit.op_class_0::SimdShift            0      0.00%     83.26% # Class of committed instruction
system.cpu0.commit.op_class_0::SimdShiftAcc            0      0.00%     83.26% # Class of committed instruction
system.cpu0.commit.op_class_0::SimdSqrt             0      0.00%     83.26% # Class of committed instruction
system.cpu0.commit.op_class_0::SimdFloatAdd            0      0.00%     83.26% # Class of committed instruction
system.cpu0.commit.op_class_0::SimdFloatAlu            0      0.00%     83.26% # Class of committed instruction
system.cpu0.commit.op_class_0::SimdFloatCmp            0      0.00%     83.26% # Class of committed instruction
system.cpu0.commit.op_class_0::SimdFloatCvt            0      0.00%     83.26% # Class of committed instruction
system.cpu0.commit.op_class_0::SimdFloatDiv            0      0.00%     83.26% # Class of committed instruction
system.cpu0.commit.op_class_0::SimdFloatMisc            0      0.00%     83.26% # Class of committed instruction
system.cpu0.commit.op_class_0::SimdFloatMult            0      0.00%     83.26% # Class of committed instruction
system.cpu0.commit.op_class_0::SimdFloatMultAcc            0      0.00%     83.26% # Class of committed instruction
system.cpu0.commit.op_class_0::SimdFloatSqrt            0      0.00%     83.26% # Class of committed instruction
system.cpu0.commit.op_class_0::MemRead        2158271     16.63%     99.89% # Class of committed instruction
system.cpu0.commit.op_class_0::MemWrite         13226      0.10%     99.99% # Class of committed instruction
system.cpu0.commit.op_class_0::FloatMemRead          826      0.01%    100.00% # Class of committed instruction
system.cpu0.commit.op_class_0::FloatMemWrite          384      0.00%    100.00% # Class of committed instruction
system.cpu0.commit.op_class_0::IprAccess            0      0.00%    100.00% # Class of committed instruction
system.cpu0.commit.op_class_0::InstPrefetch            0      0.00%    100.00% # Class of committed instruction
system.cpu0.commit.op_class_0::total         12980419                       # Class of committed instruction
system.cpu0.commit.bw_lim_events              1071894                       # number cycles where commit BW limit reached
system.cpu0.rob.rob_reads                    20254093                       # The number of ROB reads
system.cpu0.rob.rob_writes                   26652251                       # The number of ROB writes
system.cpu0.timesIdled                            781                       # Number of times that the entire CPU went into an idle state and unscheduled itself
system.cpu0.idleCycles                          76147                       # Total number of cycles that the CPU has spent unscheduled due to idling
system.cpu0.committedInsts                    6509185                       # Number of Instructions Simulated
system.cpu0.committedOps                     12980419                       # Number of Ops (including micro ops) Simulated
system.cpu0.cpi                              1.251966                       # CPI: Cycles Per Instruction
system.cpu0.cpi_total                        1.251966                       # CPI: Total CPI of All Threads
system.cpu0.ipc                              0.798744                       # IPC: Instructions Per Cycle
system.cpu0.ipc_total                        0.798744                       # IPC: Total IPC of All Threads
system.cpu0.int_regfile_reads                13593921                       # number of integer regfile reads
system.cpu0.int_regfile_writes               10986856                       # number of integer regfile writes
system.cpu0.fp_regfile_reads                     8827                       # number of floating regfile reads
system.cpu0.fp_regfile_writes                    5096                       # number of floating regfile writes
system.cpu0.cc_regfile_reads                  6575790                       # number of cc regfile reads
system.cpu0.cc_regfile_writes                 4400798                       # number of cc regfile writes
system.cpu0.misc_regfile_reads                7709364                       # number of misc regfile reads
system.cpu1.branchPred.lookups                3209773                       # Number of BP lookups
system.cpu1.branchPred.condPredicted          3209773                       # Number of conditional branches predicted
system.cpu1.branchPred.condIncorrect             8472                       # Number of conditional branches incorrect
system.cpu1.branchPred.BTBLookups             3084111                       # Number of BTB lookups
system.cpu1.branchPred.BTBHits                      0                       # Number of BTB hits
system.cpu1.branchPred.BTBCorrect                   0                       # Number of correct BTB predictions (this stat may not work properly.
system.cpu1.branchPred.BTBHitPct             0.000000                       # BTB Hit Percentage
system.cpu1.branchPred.usedRAS                 103521                       # Number of times the RAS was used to get a target.
system.cpu1.branchPred.RASInCorrect               495                       # Number of incorrect RAS predictions.
system.cpu1.branchPred.indirectLookups        3084111                       # Number of indirect predictor lookups.
system.cpu1.branchPred.indirectHits           1637401                       # Number of indirect target hits.
system.cpu1.branchPred.indirectMisses         1446710                       # Number of indirect misses.
system.cpu1.branchPredindirectMispredicted         4346                       # Number of mispredicted indirect branches.
system.cpu1.clk_domain.clock                      500                       # Clock period in ticks
system.cpu1.dtb.walker.pwrStateResidencyTicks::UNDEFINED  22059279500                       # Cumulative time (in ticks) in various power states
system.cpu1.apic_clk_domain.clock                8000                       # Clock period in ticks
system.cpu1.interrupts.pwrStateResidencyTicks::UNDEFINED  22059279500                       # Cumulative time (in ticks) in various power states
system.cpu1.itb.walker.pwrStateResidencyTicks::UNDEFINED  22059279500                       # Cumulative time (in ticks) in various power states
system.cpu1.workload.num_syscalls              101158                       # Number of system calls
system.cpu1.pwrStateResidencyTicks::ON    22059279500                       # Cumulative time (in ticks) in various power states
system.cpu1.numCycles                        16685879                       # number of cpu cycles simulated
system.cpu1.numWorkItemsStarted                     0                       # number of work items this cpu started
system.cpu1.numWorkItemsCompleted                   0                       # number of work items this cpu completed
system.cpu1.fetch.icacheStallCycles            804894                       # Number of cycles fetch is stalled on an Icache miss
system.cpu1.fetch.Insts                       9699840                       # Number of instructions fetch has processed
system.cpu1.fetch.Branches                    3209773                       # Number of branches that fetch encountered
system.cpu1.fetch.predictedBranches           1740922                       # Number of branches that fetch has predicted taken
system.cpu1.fetch.Cycles                     15776818                       # Number of cycles fetch has run and was not squashing or blocked
system.cpu1.fetch.SquashCycles                  17201                       # Number of cycles fetch has spent squashing
system.cpu1.fetch.MiscStallCycles               10681                       # Number of cycles fetch has spent waiting on interrupts, or bad addresses, or out of MSHRs
system.cpu1.fetch.NoActiveThreadStallCycles           10                       # Number of stall cycles due to no active thread to fetch from
system.cpu1.fetch.PendingTrapStallCycles          567                       # Number of stall cycles due to pending traps
system.cpu1.fetch.PendingQuiesceStallCycles           13                       # Number of stall cycles due to pending quiesce instructions
system.cpu1.fetch.IcacheWaitRetryStallCycles         6617                       # Number of stall cycles due to full MSHR
system.cpu1.fetch.CacheLines                   775959                       # Number of cache lines fetched
system.cpu1.fetch.IcacheSquashes                 2604                       # Number of outstanding Icache misses that were squashed
system.cpu1.fetch.rateDist::samples          16608200                       # Number of instructions fetched each cycle (Total)
system.cpu1.fetch.rateDist::mean             1.154982                       # Number of instructions fetched each cycle (Total)
system.cpu1.fetch.rateDist::stdev            2.522153                       # Number of instructions fetched each cycle (Total)
system.cpu1.fetch.rateDist::underflows              0      0.00%      0.00% # Number of instructions fetched each cycle (Total)
system.cpu1.fetch.rateDist::0                13324513     80.23%     80.23% # Number of instructions fetched each cycle (Total)
system.cpu1.fetch.rateDist::1                  109422      0.66%     80.89% # Number of instructions fetched each cycle (Total)
system.cpu1.fetch.rateDist::2                   59172      0.36%     81.24% # Number of instructions fetched each cycle (Total)
system.cpu1.fetch.rateDist::3                  165382      1.00%     82.24% # Number of instructions fetched each cycle (Total)
system.cpu1.fetch.rateDist::4                 1158688      6.98%     89.22% # Number of instructions fetched each cycle (Total)
system.cpu1.fetch.rateDist::5                    9852      0.06%     89.28% # Number of instructions fetched each cycle (Total)
system.cpu1.fetch.rateDist::6                  158003      0.95%     90.23% # Number of instructions fetched each cycle (Total)
system.cpu1.fetch.rateDist::7                  159111      0.96%     91.18% # Number of instructions fetched each cycle (Total)
system.cpu1.fetch.rateDist::8                 1464057      8.82%    100.00% # Number of instructions fetched each cycle (Total)
system.cpu1.fetch.rateDist::overflows               0      0.00%    100.00% # Number of instructions fetched each cycle (Total)
system.cpu1.fetch.rateDist::min_value               0                       # Number of instructions fetched each cycle (Total)
system.cpu1.fetch.rateDist::max_value               8                       # Number of instructions fetched each cycle (Total)
system.cpu1.fetch.rateDist::total            16608200                       # Number of instructions fetched each cycle (Total)
system.cpu1.fetch.branchRate                 0.192365                       # Number of branch fetches per cycle
system.cpu1.fetch.rate                       0.581320                       # Number of inst fetches per cycle
system.cpu1.decode.IdleCycles                  762595                       # Number of cycles decode is idle
system.cpu1.decode.BlockedCycles             13359471                       # Number of cycles decode is blocked
system.cpu1.decode.RunCycles                   624870                       # Number of cycles decode is running
system.cpu1.decode.UnblockCycles              1852654                       # Number of cycles decode is unblocking
system.cpu1.decode.SquashCycles                  8600                       # Number of cycles decode is squashing
system.cpu1.decode.DecodedInsts              19100581                       # Number of instructions handled by decode
system.cpu1.rename.SquashCycles                  8600                       # Number of cycles rename is squashing
system.cpu1.rename.IdleCycles                 1095282                       # Number of cycles rename is idle
system.cpu1.rename.BlockCycles                3760052                       # Number of cycles rename is blocking
system.cpu1.rename.serializeStallCycles       6841793                       # count of cycles rename stalled for serializing inst
system.cpu1.rename.RunCycles                  1221762                       # Number of cycles rename is running
system.cpu1.rename.UnblockCycles              3680701                       # Number of cycles rename is unblocking
system.cpu1.rename.RenamedInsts              19059742                       # Number of instructions processed by rename
system.cpu1.rename.ROBFullEvents              2183279                       # Number of times rename has blocked due to ROB full
system.cpu1.rename.IQFullEvents                 40848                       # Number of times rename has blocked due to IQ full
system.cpu1.rename.LQFullEvents                848720                       # Number of times rename has blocked due to LQ full
system.cpu1.rename.SQFullEvents                 71012                       # Number of times rename has blocked due to SQ full
system.cpu1.rename.RenamedOperands           21553932                       # Number of destination operands rename has renamed
system.cpu1.rename.RenameLookups             41705259                       # Number of register rename lookups that rename has made
system.cpu1.rename.int_rename_lookups        20660679                       # Number of integer rename lookups
system.cpu1.rename.fp_rename_lookups            17877                       # Number of floating rename lookups
system.cpu1.rename.CommittedMaps             21065377                       # Number of HB maps that are committed
system.cpu1.rename.UndoneMaps                  488555                       # Number of HB maps that are undone due to squashing
system.cpu1.rename.serializingInsts            101192                       # count of serializing insts renamed
system.cpu1.rename.tempSerializingInsts        101195                       # count of temporary serializing insts renamed
system.cpu1.rename.skidInsts                 12280302                       # count of insts added to the skid buffer
system.cpu1.memDep0.insertedLoads             2974025                       # Number of loads inserted to the mem dependence unit.
system.cpu1.memDep0.insertedStores             142328                       # Number of stores inserted to the mem dependence unit.
system.cpu1.memDep0.conflictingLoads            67108                       # Number of conflicting loads.
system.cpu1.memDep0.conflictingStores            8794                       # Number of conflicting stores.
system.cpu1.iq.iqInstsAdded                  18886002                       # Number of instructions added to the IQ (excludes non-spec)
system.cpu1.iq.iqNonSpecInstsAdded             101243                       # Number of non-speculative instructions added to the IQ
system.cpu1.iq.iqInstsIssued                 19010561                       # Number of instructions issued
system.cpu1.iq.iqSquashedInstsIssued             6516                       # Number of squashed instructions issued
system.cpu1.iq.iqSquashedInstsExamined         323755                       # Number of squashed instructions iterated over during squash; mainly for profiling
system.cpu1.iq.iqSquashedOperandsExamined       483050                       # Number of squashed operands that are examined and possibly removed from graph
system.cpu1.iq.iqSquashedNonSpecRemoved            85                       # Number of squashed non-spec instructions that were removed
system.cpu1.iq.issued_per_cycle::samples     16608200                       # Number of insts issued each cycle
[...]
system.ruby.L1Cache_Controller.Transient_Local_GETS::total       104929                      
system.ruby.L1Cache_Controller.Transient_Local_GETS_Last_Token |           0      0.00%      0.00% |           1     33.33%     33.33% |           1     33.33%     66.67% |           1     33.33%    100.00% |           0      0.00%    100.00%
system.ruby.L1Cache_Controller.Transient_Local_GETS_Last_Token::total            3                      
system.ruby.L1Cache_Controller.Persistent_GETX |         274     22.17%     22.17% |         273     22.09%     44.26% |         231     18.69%     62.94% |         149     12.06%     75.00% |         309     25.00%    100.00%
system.ruby.L1Cache_Controller.Persistent_GETX::total         1236                      
system.ruby.L1Cache_Controller.Persistent_GETS |         492     19.25%     19.25% |         456     17.84%     37.09% |         488     19.09%     56.18% |         481     18.82%     75.00% |         639     25.00%    100.00%
system.ruby.L1Cache_Controller.Persistent_GETS::total         2556                      
system.ruby.L1Cache_Controller.Own_Lock_or_Unlock |        1130     19.87%     19.87% |        1167     20.52%     40.38% |        1177     20.69%     61.08% |        1266     22.26%     83.33% |         948     16.67%    100.00%
system.ruby.L1Cache_Controller.Own_Lock_or_Unlock::total         5688                      
system.ruby.L1Cache_Controller.Request_Timeout |        1148     22.68%     22.68% |        1416     27.97%     50.65% |        1204     23.79%     74.44% |        1294     25.56%    100.00% |           0      0.00%    100.00%
system.ruby.L1Cache_Controller.Request_Timeout::total         5062                      
system.ruby.L1Cache_Controller.Use_TimeoutNoStarvers |        3754      9.12%      9.12% |        4541     11.03%     20.15% |        5901     14.34%     34.49% |       12634     30.69%     65.18% |       14330     34.82%    100.00%
system.ruby.L1Cache_Controller.Use_TimeoutNoStarvers::total        41160                      
system.ruby.L1Cache_Controller.NP.Load   |        2286     10.69%     10.69% |        2274     10.63%     21.32% |        2282     10.67%     31.98% |        2255     10.54%     42.53% |       12295     57.47%    100.00%
system.ruby.L1Cache_Controller.NP.Load::total        21392                      
system.ruby.L1Cache_Controller.NP.Ifetch |        1208     25.01%     25.01% |        1199     24.82%     49.82% |        1218     25.21%     75.04% |        1206     24.96%    100.00% |           0      0.00%    100.00%
system.ruby.L1Cache_Controller.NP.Ifetch::total         4831                      
system.ruby.L1Cache_Controller.NP.Store  |         648      2.52%      2.52% |        1440      5.60%      8.12% |        2803     10.90%     19.02% |        9549     37.14%     56.16% |       11274     43.84%    100.00%
system.ruby.L1Cache_Controller.NP.Store::total        25714                      
system.ruby.L1Cache_Controller.NP.Transient_Local_GETX |       25219     24.82%     24.82% |       24422     24.03%     48.85% |       22052     21.70%     70.55% |       15307     15.06%     85.61% |       14626     14.39%    100.00%
system.ruby.L1Cache_Controller.NP.Transient_Local_GETX::total       101626                      
system.ruby.L1Cache_Controller.NP.Transient_Local_GETS |       22622     22.21%     22.21% |       21856     21.46%     43.66% |       21710     21.31%     64.97% |       21751     21.35%     86.33% |       13928     13.67%    100.00%
system.ruby.L1Cache_Controller.NP.Transient_Local_GETS::total       101867                      
system.ruby.L1Cache_Controller.NP.Own_Lock_or_Unlock |         766     20.20%     20.20% |         729     19.22%     39.43% |         719     18.96%     58.39% |         630     16.61%     75.00% |         948     25.00%    100.00%
system.ruby.L1Cache_Controller.NP.Own_Lock_or_Unlock::total         3792                      
system.ruby.L1Cache_Controller.I.Load    |           2     20.00%     20.00% |           1     10.00%     30.00% |           5     50.00%     80.00% |           2     20.00%    100.00% |           0      0.00%    100.00%
system.ruby.L1Cache_Controller.I.Load::total           10                      
system.ruby.L1Cache_Controller.I.Store   |           4     57.14%     57.14% |           3     42.86%    100.00% |           0      0.00%    100.00% |           0      0.00%    100.00% |           0      0.00%    100.00%
system.ruby.L1Cache_Controller.I.Store::total            7                      
system.ruby.L1Cache_Controller.I.L1_Replacement |          10      4.48%      4.48% |          48     21.52%     26.01% |          72     32.29%     58.30% |          73     32.74%     91.03% |          20      8.97%    100.00%
system.ruby.L1Cache_Controller.I.L1_Replacement::total          223                      
system.ruby.L1Cache_Controller.I.Transient_Local_GETX |           0      0.00%      0.00% |           0      0.00%      0.00% |        1017     49.98%     49.98% |        1018     50.02%    100.00% |           0      0.00%    100.00%
system.ruby.L1Cache_Controller.I.Transient_Local_GETX::total         2035                      
system.ruby.L1Cache_Controller.S.Load    |     1067033     13.08%     13.08% |     1515380     18.57%     31.65% |     2070496     25.37%     57.02% |     3368129     41.28%     98.30% |      138617      1.70%    100.00%
system.ruby.L1Cache_Controller.S.Load::total      8159655                      
system.ruby.L1Cache_Controller.S.Ifetch  |     1057372     18.28%     18.28% |      405605      7.01%     25.29% |     2595975     44.87%     70.16% |     1726051     29.84%    100.00% |           0      0.00%    100.00%
system.ruby.L1Cache_Controller.S.Ifetch::total      5785003                      
system.ruby.L1Cache_Controller.S.Store   |          49     24.62%     24.62% |          54     27.14%     51.76% |          47     23.62%     75.38% |          45     22.61%     97.99% |           4      2.01%    100.00%
system.ruby.L1Cache_Controller.S.Store::total          199                      
system.ruby.L1Cache_Controller.S.L1_Replacement |         240      2.32%      2.32% |         258      2.50%      4.82% |         303      2.93%      7.76% |         284      2.75%     10.51% |        9239     89.49%    100.00%
system.ruby.L1Cache_Controller.S.L1_Replacement::total        10324                      
system.ruby.L1Cache_Controller.S.Transient_Local_GETX |           0      0.00%      0.00% |           1     33.33%     33.33% |           1     33.33%     66.67% |           1     33.33%    100.00% |           0      0.00%    100.00%
system.ruby.L1Cache_Controller.S.Transient_Local_GETX::total            3                      
system.ruby.L1Cache_Controller.S.Transient_Local_GETS_Last_Token |           0      0.00%      0.00% |           1     33.33%     33.33% |           1     33.33%     66.67% |           1     33.33%    100.00% |           0      0.00%    100.00%
system.ruby.L1Cache_Controller.S.Transient_Local_GETS_Last_Token::total            3                      
system.ruby.L1Cache_Controller.M.Load    |       16699     15.47%     15.47% |       15227     14.11%     29.58% |       16494     15.28%     44.86% |       16843     15.60%     60.46% |       42679     39.54%    100.00%
system.ruby.L1Cache_Controller.M.Load::total       107942                      
system.ruby.L1Cache_Controller.M.Ifetch  |     1103939     28.93%     28.93% |      368552      9.66%     38.59% |     1412207     37.01%     75.61% |      930618     24.39%    100.00% |           0      0.00%    100.00%
system.ruby.L1Cache_Controller.M.Ifetch::total      3815316                      
system.ruby.L1Cache_Controller.M.Store   |          45      3.75%      3.75% |          45      3.75%      7.51% |          47      3.92%     11.43% |          45      3.75%     15.18% |        1017     84.82%    100.00%
system.ruby.L1Cache_Controller.M.Store::total         1199                      
system.ruby.L1Cache_Controller.M.L1_Replacement |        1796     15.82%     15.82% |        2466     21.73%     37.55% |        2532     22.31%     59.86% |        2521     22.21%     82.07% |        2035     17.93%    100.00%
system.ruby.L1Cache_Controller.M.L1_Replacement::total        11350                      
system.ruby.L1Cache_Controller.M.Own_Lock_or_Unlock |         146     22.96%     22.96% |         182     28.62%     51.57% |         151     23.74%     75.31% |         157     24.69%    100.00% |           0      0.00%    100.00%
system.ruby.L1Cache_Controller.M.Own_Lock_or_Unlock::total          636                      
system.ruby.L1Cache_Controller.MM.Load   |       22263      1.60%      1.60% |      167053     11.98%     13.58% |      354418     25.42%     39.00% |      850585     61.00%    100.00% |           0      0.00%    100.00%
system.ruby.L1Cache_Controller.MM.Load::total      1394319                      
system.ruby.L1Cache_Controller.MM.Store  |       10678      0.96%      0.96% |      128109     11.47%     12.42% |      267919     23.98%     36.40% |      537392     48.10%     84.51% |      173097     15.49%    100.00%
system.ruby.L1Cache_Controller.MM.Store::total      1117195                      
system.ruby.L1Cache_Controller.MM.L1_Replacement |         568      2.48%      2.48% |         614      2.68%      5.16% |        1868      8.15%     13.31% |        8606     37.57%     50.88% |       11251     49.12%    100.00%
system.ruby.L1Cache_Controller.MM.L1_Replacement::total        22907                      
system.ruby.L1Cache_Controller.MM.Transient_Local_GETX |           0      0.00%      0.00% |           0      0.00%      0.00% |           0      0.00%      0.00% |           0      0.00%      0.00% |          16    100.00%    100.00%
system.ruby.L1Cache_Controller.MM.Transient_Local_GETX::total           16                      
system.ruby.L1Cache_Controller.MM.Transient_Local_GETS |         115      3.76%      3.76% |         902     29.46%     33.21% |        1017     33.21%     66.43% |        1018     33.25%     99.67% |          10      0.33%    100.00%
system.ruby.L1Cache_Controller.MM.Transient_Local_GETS::total         3062                      
system.ruby.L1Cache_Controller.MM.Own_Lock_or_Unlock |          36     11.54%     11.54% |          37     11.86%     23.40% |          78     25.00%     48.40% |         161     51.60%    100.00% |           0      0.00%    100.00%
system.ruby.L1Cache_Controller.MM.Own_Lock_or_Unlock::total          312                      
system.ruby.L1Cache_Controller.M_W.Load  |       11159     23.38%     23.38% |       11102     23.26%     46.65% |       11215     23.50%     70.15% |       11169     23.40%     93.55% |        3079      6.45%    100.00%
system.ruby.L1Cache_Controller.M_W.Load::total        47724                      
system.ruby.L1Cache_Controller.M_W.Ifetch |         424     25.24%     25.24% |         430     25.60%     50.83% |         421     25.06%     75.89% |         405     24.11%    100.00% |           0      0.00%    100.00%
system.ruby.L1Cache_Controller.M_W.Ifetch::total         1680                      
system.ruby.L1Cache_Controller.M_W.Store |          11     22.00%     22.00% |          12     24.00%     46.00% |          14     28.00%     74.00% |          13     26.00%    100.00% |           0      0.00%    100.00%
system.ruby.L1Cache_Controller.M_W.Store::total           50                      
system.ruby.L1Cache_Controller.M_W.Own_Lock_or_Unlock |          19     21.35%     21.35% |          25     28.09%     49.44% |          26     29.21%     78.65% |          19     21.35%    100.00% |           0      0.00%    100.00%
system.ruby.L1Cache_Controller.M_W.Own_Lock_or_Unlock::total           89                      
system.ruby.L1Cache_Controller.M_W.Use_TimeoutNoStarvers |        3042     20.03%     20.03% |        3032     19.96%     39.99% |        3037     19.99%     59.98% |        3027     19.93%     79.91% |        3052     20.09%    100.00%
system.ruby.L1Cache_Controller.M_W.Use_TimeoutNoStarvers::total        15190                      
system.ruby.L1Cache_Controller.MM_W.Load |          39     21.79%     21.79% |          37     20.67%     42.46% |          53     29.61%     72.07% |          50     27.93%    100.00% |           0      0.00%    100.00%
system.ruby.L1Cache_Controller.MM_W.Load::total          179                      
system.ruby.L1Cache_Controller.MM_W.Store |        2631      6.41%      6.41% |        3763      9.17%     15.59% |        6054     14.76%     30.35% |       17291     42.16%     72.50% |       11278     27.50%    100.00%
system.ruby.L1Cache_Controller.MM_W.Store::total        41017                      
system.ruby.L1Cache_Controller.MM_W.Own_Lock_or_Unlock |           5     19.23%     19.23% |           1      3.85%     23.08% |           5     19.23%     42.31% |          15     57.69%    100.00% |           0      0.00%    100.00%
system.ruby.L1Cache_Controller.MM_W.Own_Lock_or_Unlock::total           26                      
system.ruby.L1Cache_Controller.MM_W.Use_TimeoutNoStarvers |         712      2.74%      2.74% |        1509      5.81%      8.55% |        2864     11.03%     19.58% |        9607     36.99%     56.57% |       11278     43.43%    100.00%
system.ruby.L1Cache_Controller.MM_W.Use_TimeoutNoStarvers::total        25970                      
system.ruby.L1Cache_Controller.IM.Data_All_Tokens |         652      2.53%      2.53% |        1443      5.61%      8.15% |        2803     10.90%     19.04% |        9549     37.13%     56.17% |       11274     43.83%    100.00%
system.ruby.L1Cache_Controller.IM.Data_All_Tokens::total        25721                      
system.ruby.L1Cache_Controller.IM.Ack    |           0      0.00%      0.00% |           0      0.00%      0.00% |           0      0.00%      0.00% |           0      0.00%      0.00% |           2    100.00%    100.00%
system.ruby.L1Cache_Controller.IM.Ack::total            2                      
system.ruby.L1Cache_Controller.IM.Own_Lock_or_Unlock |          30     10.60%     10.60% |          35     12.37%     22.97% |          73     25.80%     48.76% |         145     51.24%    100.00% |           0      0.00%    100.00%
system.ruby.L1Cache_Controller.IM.Own_Lock_or_Unlock::total          283                      
system.ruby.L1Cache_Controller.IM.Request_Timeout |         232     33.05%     33.05% |          55      7.83%     40.88% |         198     28.21%     69.09% |         217     30.91%    100.00% |           0      0.00%    100.00%
system.ruby.L1Cache_Controller.IM.Request_Timeout::total          702                      
system.ruby.L1Cache_Controller.SM.Data_All_Tokens |          49     24.62%     24.62% |          54     27.14%     51.76% |          47     23.62%     75.38% |          45     22.61%     97.99% |           4      2.01%    100.00%
system.ruby.L1Cache_Controller.SM.Data_All_Tokens::total          199                      
system.ruby.L1Cache_Controller.SM.Ack    |           0      0.00%      0.00% |           0      0.00%      0.00% |           0      0.00%      0.00% |           0      0.00%      0.00% |           1    100.00%    100.00%
system.ruby.L1Cache_Controller.SM.Ack::total            1                      
system.ruby.L1Cache_Controller.IS.L1_Replacement |           0      0.00%      0.00% |           0      0.00%      0.00% |           3    100.00%    100.00% |           0      0.00%    100.00% |           0      0.00%    100.00%
system.ruby.L1Cache_Controller.IS.L1_Replacement::total            3                      
system.ruby.L1Cache_Controller.IS.Data_Shared |         443      4.03%      4.03% |         430      3.91%      7.94% |         454      4.13%     12.07% |         422      3.84%     15.91% |        9243     84.09%    100.00%
system.ruby.L1Cache_Controller.IS.Data_Shared::total        10992                      
system.ruby.L1Cache_Controller.IS.Data_All_Tokens |        3053     20.03%     20.03% |        3044     19.97%     40.00% |        3051     20.02%     60.02% |        3041     19.95%     79.98% |        3052     20.02%    100.00%
system.ruby.L1Cache_Controller.IS.Data_All_Tokens::total        15241                      
system.ruby.L1Cache_Controller.IS.Own_Lock_or_Unlock |         128     23.27%     23.27% |         158     28.73%     52.00% |         125     22.73%     74.73% |         139     25.27%    100.00% |           0      0.00%    100.00%
system.ruby.L1Cache_Controller.IS.Own_Lock_or_Unlock::total          550                      
system.ruby.L1Cache_Controller.IS.Request_Timeout |         916     21.01%     21.01% |        1361     31.22%     52.22% |        1006     23.07%     75.30% |        1077     24.70%    100.00% |           0      0.00%    100.00%
system.ruby.L1Cache_Controller.IS.Request_Timeout::total         4360                      
system.ruby.L1Cache_Controller.I_L.Persistent_GETX |         274     22.17%     22.17% |         273     22.09%     44.26% |         231     18.69%     62.94% |         149     12.06%     75.00% |         309     25.00%    100.00%
system.ruby.L1Cache_Controller.I_L.Persistent_GETX::total         1236                      
system.ruby.L1Cache_Controller.I_L.Persistent_GETS |         492     19.25%     19.25% |         456     17.84%     37.09% |         488     19.09%     56.18% |         481     18.82%     75.00% |         639     25.00%    100.00%
system.ruby.L1Cache_Controller.I_L.Persistent_GETS::total         2556                      
system.ruby.L2Cache_Controller.L1_GETS          26233      0.00%      0.00%
system.ruby.L2Cache_Controller.L1_GETX          25920      0.00%      0.00%
system.ruby.L2Cache_Controller.L1_INV            3081      0.00%      0.00%
system.ruby.L2Cache_Controller.L2_Replacement          112      0.00%      0.00%
system.ruby.L2Cache_Controller.Writeback_Shared_Data            2      0.00%      0.00%
system.ruby.L2Cache_Controller.Writeback_All_Tokens        44579      0.00%      0.00%
system.ruby.L2Cache_Controller.Persistent_GETX          309      0.00%      0.00%
system.ruby.L2Cache_Controller.Persistent_GETS          639      0.00%      0.00%
system.ruby.L2Cache_Controller.Own_Lock_or_Unlock          948      0.00%      0.00%
system.ruby.L2Cache_Controller.NP.L1_GETS        15074      0.00%      0.00%
system.ruby.L2Cache_Controller.NP.L1_GETX        14126      0.00%      0.00%
system.ruby.L2Cache_Controller.NP.L1_INV         2895      0.00%      0.00%
system.ruby.L2Cache_Controller.NP.Writeback_All_Tokens        23636      0.00%      0.00%
system.ruby.L2Cache_Controller.NP.Own_Lock_or_Unlock          948      0.00%      0.00%
system.ruby.L2Cache_Controller.I.L1_GETS          167      0.00%      0.00%
system.ruby.L2Cache_Controller.I.L1_GETX           16      0.00%      0.00%
system.ruby.L2Cache_Controller.I.L1_INV           186      0.00%      0.00%
system.ruby.L2Cache_Controller.I.Writeback_All_Tokens        10621      0.00%      0.00%
system.ruby.L2Cache_Controller.O.L1_GETS            3      0.00%      0.00%
system.ruby.L2Cache_Controller.O.L1_GETX          201      0.00%      0.00%
system.ruby.L2Cache_Controller.O.L2_Replacement            1      0.00%      0.00%
system.ruby.L2Cache_Controller.O.Writeback_Shared_Data            2      0.00%      0.00%
system.ruby.L2Cache_Controller.O.Writeback_All_Tokens        10322      0.00%      0.00%
system.ruby.L2Cache_Controller.M.L1_GETS        10989      0.00%      0.00%
system.ruby.L2Cache_Controller.M.L1_GETX        11577      0.00%      0.00%
system.ruby.L2Cache_Controller.M.L2_Replacement          111      0.00%      0.00%
system.ruby.L2Cache_Controller.I_L.Persistent_GETX          309      0.00%      0.00%
system.ruby.L2Cache_Controller.I_L.Persistent_GETS          639      0.00%      0.00%

---------- End Simulation Statistics   ----------
